<configuration><input><net-file value="lagos_big.net.xml"/><route-files value="_e.rou.xml"/></input><time><begin value="0"/><end value="5"/></time></configuration>