<?xml version="1.0" encoding="UTF-8"?>
<routes>
  <!-- EXTREMELY RANDOM chaos scenario: random surges, random directions. -->
  <vType id="car" accel="2.6" decel="4.5" length="5.0" minGap="2.5" maxSpeed="13.9" departLane="random" lcImpatience="0.9" lcPushy="0.7"/>
  <route id="N_S" edges="n2c c2s"/>
  <route id="S_N" edges="s2c c2n"/>
  <route id="E_W" edges="e2c c2w"/>
  <route id="W_E" edges="w2c c2e"/>
  <route id="N_W" edges="n2c c2w"/>
  <route id="S_E" edges="s2c c2e"/>
  <route id="E_N" edges="e2c c2n"/>
  <route id="W_S" edges="w2c c2s"/>
  <flow id="f0" type="car" route="N_W" begin="0" end="60" vehsPerHour="100" departLane="random" departSpeed="max"/>
  <flow id="f1" type="car" route="W_S" begin="0" end="60" vehsPerHour="1800" departLane="random" departSpeed="max"/>
  <flow id="f2" type="car" route="S_N" begin="60" end="120" vehsPerHour="200" departLane="random" departSpeed="max"/>
  <flow id="f3" type="car" route="W_E" begin="60" end="120" vehsPerHour="50" departLane="random" departSpeed="max"/>
  <flow id="f4" type="car" route="N_W" begin="60" end="120" vehsPerHour="200" departLane="random" departSpeed="max"/>
  <flow id="f5" type="car" route="N_S" begin="60" end="120" vehsPerHour="100" departLane="random" departSpeed="max"/>
  <flow id="f6" type="car" route="W_S" begin="120" end="180" vehsPerHour="200" departLane="random" departSpeed="max"/>
  <flow id="f7" type="car" route="E_N" begin="120" end="180" vehsPerHour="50" departLane="random" departSpeed="max"/>
  <flow id="f8" type="car" route="S_E" begin="120" end="180" vehsPerHour="1200" departLane="random" departSpeed="max"/>
  <flow id="f9" type="car" route="W_E" begin="120" end="180" vehsPerHour="2474" departLane="random" departSpeed="max"/>
  <flow id="f10" type="car" route="N_W" begin="120" end="180" vehsPerHour="400" departLane="random" departSpeed="max"/>
  <flow id="f11" type="car" route="N_S" begin="120" end="180" vehsPerHour="200" departLane="random" departSpeed="max"/>
  <flow id="f12" type="car" route="S_N" begin="120" end="180" vehsPerHour="1896" departLane="random" departSpeed="max"/>
  <flow id="f13" type="car" route="E_N" begin="180" end="240" vehsPerHour="200" departLane="random" departSpeed="max"/>
  <flow id="f14" type="car" route="W_S" begin="180" end="240" vehsPerHour="400" departLane="random" departSpeed="max"/>
  <flow id="f15" type="car" route="S_E" begin="180" end="240" vehsPerHour="1200" departLane="random" departSpeed="max"/>
  <flow id="f16" type="car" route="N_S" begin="180" end="240" vehsPerHour="100" departLane="random" departSpeed="max"/>
  <flow id="f17" type="car" route="E_W" begin="180" end="240" vehsPerHour="400" departLane="random" departSpeed="max"/>
  <flow id="f18" type="car" route="S_N" begin="180" end="240" vehsPerHour="800" departLane="random" departSpeed="max"/>
  <flow id="f19" type="car" route="W_E" begin="180" end="240" vehsPerHour="1800" departLane="random" departSpeed="max"/>
  <flow id="f20" type="car" route="W_S" begin="240" end="300" vehsPerHour="1200" departLane="random" departSpeed="max"/>
  <flow id="f21" type="car" route="E_N" begin="240" end="300" vehsPerHour="1824" departLane="random" departSpeed="max"/>
  <flow id="f22" type="car" route="N_S" begin="240" end="300" vehsPerHour="1800" departLane="random" departSpeed="max"/>
  <flow id="f23" type="car" route="S_N" begin="240" end="300" vehsPerHour="400" departLane="random" departSpeed="max"/>
  <flow id="f24" type="car" route="E_W" begin="240" end="300" vehsPerHour="1200" departLane="random" departSpeed="max"/>
  <flow id="f25" type="car" route="W_E" begin="240" end="300" vehsPerHour="200" departLane="random" departSpeed="max"/>
  <flow id="f26" type="car" route="E_W" begin="300" end="360" vehsPerHour="1800" departLane="random" departSpeed="max"/>
  <flow id="f27" type="car" route="S_N" begin="300" end="360" vehsPerHour="200" departLane="random" departSpeed="max"/>
  <flow id="f28" type="car" route="W_S" begin="300" end="360" vehsPerHour="1754" departLane="random" departSpeed="max"/>
  <flow id="f29" type="car" route="E_N" begin="300" end="360" vehsPerHour="2219" departLane="random" departSpeed="max"/>
  <flow id="f30" type="car" route="W_E" begin="300" end="360" vehsPerHour="1200" departLane="random" departSpeed="max"/>
  <flow id="f31" type="car" route="N_S" begin="300" end="360" vehsPerHour="1800" departLane="random" departSpeed="max"/>
  <flow id="f32" type="car" route="N_S" begin="360" end="420" vehsPerHour="1200" departLane="random" departSpeed="max"/>
  <flow id="f33" type="car" route="E_N" begin="360" end="420" vehsPerHour="1800" departLane="random" departSpeed="max"/>
  <flow id="f34" type="car" route="S_E" begin="360" end="420" vehsPerHour="800" departLane="random" departSpeed="max"/>
  <flow id="f35" type="car" route="S_N" begin="360" end="420" vehsPerHour="100" departLane="random" departSpeed="max"/>
  <flow id="f36" type="car" route="E_W" begin="360" end="420" vehsPerHour="200" departLane="random" departSpeed="max"/>
  <flow id="f37" type="car" route="E_N" begin="420" end="480" vehsPerHour="200" departLane="random" departSpeed="max"/>
  <flow id="f38" type="car" route="W_E" begin="420" end="480" vehsPerHour="2317" departLane="random" departSpeed="max"/>
  <flow id="f39" type="car" route="N_S" begin="420" end="480" vehsPerHour="100" departLane="random" departSpeed="max"/>
  <flow id="f40" type="car" route="S_E" begin="420" end="480" vehsPerHour="100" departLane="random" departSpeed="max"/>
  <flow id="f41" type="car" route="N_W" begin="420" end="480" vehsPerHour="1800" departLane="random" departSpeed="max"/>
  <flow id="f42" type="car" route="W_S" begin="420" end="480" vehsPerHour="2136" departLane="random" departSpeed="max"/>
  <flow id="f43" type="car" route="S_N" begin="480" end="540" vehsPerHour="1200" departLane="random" departSpeed="max"/>
  <flow id="f44" type="car" route="S_E" begin="480" end="540" vehsPerHour="400" departLane="random" departSpeed="max"/>
  <flow id="f45" type="car" route="W_E" begin="480" end="540" vehsPerHour="400" departLane="random" departSpeed="max"/>
  <flow id="f46" type="car" route="W_E" begin="540" end="600" vehsPerHour="2235" departLane="random" departSpeed="max"/>
  <flow id="f47" type="car" route="E_N" begin="540" end="600" vehsPerHour="200" departLane="random" departSpeed="max"/>
  <flow id="f48" type="car" route="S_N" begin="540" end="600" vehsPerHour="1800" departLane="random" departSpeed="max"/>
  <flow id="f49" type="car" route="N_S" begin="540" end="600" vehsPerHour="50" departLane="random" departSpeed="max"/>
  <flow id="f50" type="car" route="S_N" begin="600" end="660" vehsPerHour="2315" departLane="random" departSpeed="max"/>
  <flow id="f51" type="car" route="E_N" begin="600" end="660" vehsPerHour="1756" departLane="random" departSpeed="max"/>
  <flow id="f52" type="car" route="W_S" begin="660" end="720" vehsPerHour="800" departLane="random" departSpeed="max"/>
  <flow id="f53" type="car" route="E_W" begin="660" end="720" vehsPerHour="1800" departLane="random" departSpeed="max"/>
  <flow id="f54" type="car" route="S_E" begin="660" end="720" vehsPerHour="1200" departLane="random" departSpeed="max"/>
  <flow id="f55" type="car" route="W_E" begin="660" end="720" vehsPerHour="1661" departLane="random" departSpeed="max"/>
  <flow id="f56" type="car" route="S_N" begin="660" end="720" vehsPerHour="100" departLane="random" departSpeed="max"/>
  <flow id="f57" type="car" route="N_W" begin="720" end="780" vehsPerHour="800" departLane="random" departSpeed="max"/>
  <flow id="f58" type="car" route="S_N" begin="720" end="780" vehsPerHour="400" departLane="random" departSpeed="max"/>
  <flow id="f59" type="car" route="E_W" begin="720" end="780" vehsPerHour="200" departLane="random" departSpeed="max"/>
  <flow id="f60" type="car" route="W_E" begin="720" end="780" vehsPerHour="400" departLane="random" departSpeed="max"/>
  <flow id="f61" type="car" route="W_S" begin="720" end="780" vehsPerHour="400" departLane="random" departSpeed="max"/>
  <flow id="f62" type="car" route="E_N" begin="720" end="780" vehsPerHour="2443" departLane="random" departSpeed="max"/>
  <flow id="f63" type="car" route="S_E" begin="720" end="780" vehsPerHour="1900" departLane="random" departSpeed="max"/>
  <flow id="f64" type="car" route="N_S" begin="720" end="780" vehsPerHour="2381" departLane="random" departSpeed="max"/>
  <flow id="f65" type="car" route="W_E" begin="780" end="840" vehsPerHour="1918" departLane="random" departSpeed="max"/>
  <flow id="f66" type="car" route="E_N" begin="780" end="840" vehsPerHour="100" departLane="random" departSpeed="max"/>
  <flow id="f67" type="car" route="W_S" begin="780" end="840" vehsPerHour="1622" departLane="random" departSpeed="max"/>
  <flow id="f68" type="car" route="S_N" begin="780" end="840" vehsPerHour="100" departLane="random" departSpeed="max"/>
  <flow id="f69" type="car" route="W_E" begin="840" end="900" vehsPerHour="800" departLane="random" departSpeed="max"/>
  <flow id="f70" type="car" route="N_W" begin="840" end="900" vehsPerHour="1531" departLane="random" departSpeed="max"/>
  <flow id="f71" type="car" route="W_S" begin="840" end="900" vehsPerHour="400" departLane="random" departSpeed="max"/>
  <flow id="f72" type="car" route="S_E" begin="840" end="900" vehsPerHour="1624" departLane="random" departSpeed="max"/>
  <flow id="f73" type="car" route="N_S" begin="840" end="900" vehsPerHour="50" departLane="random" departSpeed="max"/>
  <flow id="f74" type="car" route="E_W" begin="840" end="900" vehsPerHour="1200" departLane="random" departSpeed="max"/>
  <flow id="f75" type="car" route="S_N" begin="840" end="900" vehsPerHour="50" departLane="random" departSpeed="max"/>
  <flow id="f76" type="car" route="W_E" begin="900" end="960" vehsPerHour="100" departLane="random" departSpeed="max"/>
  <flow id="f77" type="car" route="E_W" begin="900" end="960" vehsPerHour="2231" departLane="random" departSpeed="max"/>
  <flow id="f78" type="car" route="N_S" begin="900" end="960" vehsPerHour="2208" departLane="random" departSpeed="max"/>
  <flow id="f79" type="car" route="W_S" begin="900" end="960" vehsPerHour="1200" departLane="random" departSpeed="max"/>
  <flow id="f80" type="car" route="S_N" begin="900" end="960" vehsPerHour="1200" departLane="random" departSpeed="max"/>
  <flow id="f81" type="car" route="N_W" begin="900" end="960" vehsPerHour="800" departLane="random" departSpeed="max"/>
  <flow id="f82" type="car" route="S_N" begin="960" end="1020" vehsPerHour="100" departLane="random" departSpeed="max"/>
  <flow id="f83" type="car" route="E_N" begin="960" end="1020" vehsPerHour="800" departLane="random" departSpeed="max"/>
  <flow id="f84" type="car" route="E_N" begin="1020" end="1080" vehsPerHour="200" departLane="random" departSpeed="max"/>
  <flow id="f85" type="car" route="N_W" begin="1020" end="1080" vehsPerHour="800" departLane="random" departSpeed="max"/>
  <flow id="f86" type="car" route="E_W" begin="1080" end="1140" vehsPerHour="100" departLane="random" departSpeed="max"/>
  <flow id="f87" type="car" route="S_E" begin="1080" end="1140" vehsPerHour="100" departLane="random" departSpeed="max"/>
  <flow id="f88" type="car" route="S_N" begin="1080" end="1140" vehsPerHour="1200" departLane="random" departSpeed="max"/>
  <flow id="f89" type="car" route="W_E" begin="1080" end="1140" vehsPerHour="1579" departLane="random" departSpeed="max"/>
  <flow id="f90" type="car" route="E_N" begin="1080" end="1140" vehsPerHour="1705" departLane="random" departSpeed="max"/>
  <flow id="f91" type="car" route="N_W" begin="1080" end="1140" vehsPerHour="2336" departLane="random" departSpeed="max"/>
  <flow id="f92" type="car" route="W_S" begin="1080" end="1140" vehsPerHour="100" departLane="random" departSpeed="max"/>
  <flow id="f93" type="car" route="N_S" begin="1080" end="1140" vehsPerHour="400" departLane="random" departSpeed="max"/>
  <flow id="f94" type="car" route="W_S" begin="1140" end="1200" vehsPerHour="200" departLane="random" departSpeed="max"/>
  <flow id="f95" type="car" route="W_E" begin="1140" end="1200" vehsPerHour="100" departLane="random" departSpeed="max"/>
  <flow id="f96" type="car" route="W_E" begin="1200" end="1260" vehsPerHour="100" departLane="random" departSpeed="max"/>
  <flow id="f97" type="car" route="S_E" begin="1200" end="1260" vehsPerHour="50" departLane="random" departSpeed="max"/>
  <flow id="f98" type="car" route="S_E" begin="1260" end="1320" vehsPerHour="400" departLane="random" departSpeed="max"/>
  <flow id="f99" type="car" route="W_E" begin="1260" end="1320" vehsPerHour="100" departLane="random" departSpeed="max"/>
  <flow id="f100" type="car" route="E_N" begin="1260" end="1320" vehsPerHour="1200" departLane="random" departSpeed="max"/>
  <flow id="f101" type="car" route="N_S" begin="1260" end="1320" vehsPerHour="400" departLane="random" departSpeed="max"/>
  <flow id="f102" type="car" route="S_N" begin="1260" end="1320" vehsPerHour="50" departLane="random" departSpeed="max"/>
  <flow id="f103" type="car" route="E_W" begin="1260" end="1320" vehsPerHour="50" departLane="random" departSpeed="max"/>
  <flow id="f104" type="car" route="E_W" begin="1320" end="1380" vehsPerHour="1976" departLane="random" departSpeed="max"/>
  <flow id="f105" type="car" route="W_S" begin="1320" end="1380" vehsPerHour="200" departLane="random" departSpeed="max"/>
  <flow id="f106" type="car" route="E_N" begin="1320" end="1380" vehsPerHour="1881" departLane="random" departSpeed="max"/>
  <flow id="f107" type="car" route="E_N" begin="1380" end="1440" vehsPerHour="2252" departLane="random" departSpeed="max"/>
  <flow id="f108" type="car" route="W_E" begin="1380" end="1440" vehsPerHour="2446" departLane="random" departSpeed="max"/>
  <flow id="f109" type="car" route="W_S" begin="1440" end="1500" vehsPerHour="2022" departLane="random" departSpeed="max"/>
  <flow id="f110" type="car" route="S_N" begin="1440" end="1500" vehsPerHour="50" departLane="random" departSpeed="max"/>
  <flow id="f111" type="car" route="S_E" begin="1440" end="1500" vehsPerHour="1200" departLane="random" departSpeed="max"/>
  <flow id="f112" type="car" route="W_E" begin="1440" end="1500" vehsPerHour="100" departLane="random" departSpeed="max"/>
  <flow id="f113" type="car" route="E_W" begin="1440" end="1500" vehsPerHour="50" departLane="random" departSpeed="max"/>
  <flow id="f114" type="car" route="S_N" begin="1500" end="1560" vehsPerHour="400" departLane="random" departSpeed="max"/>
  <flow id="f115" type="car" route="S_E" begin="1500" end="1560" vehsPerHour="400" departLane="random" departSpeed="max"/>
  <flow id="f116" type="car" route="W_E" begin="1500" end="1560" vehsPerHour="400" departLane="random" departSpeed="max"/>
  <flow id="f117" type="car" route="N_S" begin="1500" end="1560" vehsPerHour="1800" departLane="random" departSpeed="max"/>
  <flow id="f118" type="car" route="W_S" begin="1500" end="1560" vehsPerHour="1800" departLane="random" departSpeed="max"/>
  <flow id="f119" type="car" route="N_W" begin="1500" end="1560" vehsPerHour="200" departLane="random" departSpeed="max"/>
  <flow id="f120" type="car" route="E_N" begin="1500" end="1560" vehsPerHour="100" departLane="random" departSpeed="max"/>
  <flow id="f121" type="car" route="N_W" begin="1560" end="1620" vehsPerHour="50" departLane="random" departSpeed="max"/>
  <flow id="f122" type="car" route="W_S" begin="1560" end="1620" vehsPerHour="1649" departLane="random" departSpeed="max"/>
  <flow id="f123" type="car" route="N_S" begin="1560" end="1620" vehsPerHour="50" departLane="random" departSpeed="max"/>
  <flow id="f124" type="car" route="W_E" begin="1560" end="1620" vehsPerHour="200" departLane="random" departSpeed="max"/>
  <flow id="f125" type="car" route="S_E" begin="1560" end="1620" vehsPerHour="400" departLane="random" departSpeed="max"/>
  <flow id="f126" type="car" route="E_W" begin="1560" end="1620" vehsPerHour="1200" departLane="random" departSpeed="max"/>
  <flow id="f127" type="car" route="E_N" begin="1620" end="1680" vehsPerHour="400" departLane="random" departSpeed="max"/>
  <flow id="f128" type="car" route="W_E" begin="1620" end="1680" vehsPerHour="400" departLane="random" departSpeed="max"/>
  <flow id="f129" type="car" route="W_S" begin="1620" end="1680" vehsPerHour="50" departLane="random" departSpeed="max"/>
  <flow id="f130" type="car" route="N_S" begin="1680" end="1740" vehsPerHour="1800" departLane="random" departSpeed="max"/>
  <flow id="f131" type="car" route="N_W" begin="1740" end="1800" vehsPerHour="50" departLane="random" departSpeed="max"/>
  <flow id="f132" type="car" route="N_S" begin="1740" end="1800" vehsPerHour="1717" departLane="random" departSpeed="max"/>
  <flow id="f133" type="car" route="W_E" begin="1740" end="1800" vehsPerHour="1800" departLane="random" departSpeed="max"/>
  <flow id="f134" type="car" route="N_S" begin="1800" end="1860" vehsPerHour="200" departLane="random" departSpeed="max"/>
  <flow id="f135" type="car" route="N_W" begin="1800" end="1860" vehsPerHour="2219" departLane="random" departSpeed="max"/>
  <flow id="f136" type="car" route="S_E" begin="1800" end="1860" vehsPerHour="400" departLane="random" departSpeed="max"/>
  <flow id="f137" type="car" route="E_W" begin="1800" end="1860" vehsPerHour="100" departLane="random" departSpeed="max"/>
  <flow id="f138" type="car" route="W_E" begin="1800" end="1860" vehsPerHour="800" departLane="random" departSpeed="max"/>
  <flow id="f139" type="car" route="S_N" begin="1800" end="1860" vehsPerHour="400" departLane="random" departSpeed="max"/>
  <flow id="f140" type="car" route="E_N" begin="1800" end="1860" vehsPerHour="1800" departLane="random" departSpeed="max"/>
  <flow id="f141" type="car" route="S_E" begin="1860" end="1920" vehsPerHour="1694" departLane="random" departSpeed="max"/>
  <flow id="f142" type="car" route="N_W" begin="1860" end="1920" vehsPerHour="50" departLane="random" departSpeed="max"/>
  <flow id="f143" type="car" route="W_S" begin="1860" end="1920" vehsPerHour="100" departLane="random" departSpeed="max"/>
  <flow id="f144" type="car" route="S_N" begin="1920" end="1980" vehsPerHour="1200" departLane="random" departSpeed="max"/>
  <flow id="f145" type="car" route="N_W" begin="1980" end="2040" vehsPerHour="50" departLane="random" departSpeed="max"/>
  <flow id="f146" type="car" route="E_N" begin="1980" end="2040" vehsPerHour="400" departLane="random" departSpeed="max"/>
  <flow id="f147" type="car" route="S_E" begin="1980" end="2040" vehsPerHour="1769" departLane="random" departSpeed="max"/>
  <flow id="f148" type="car" route="E_W" begin="1980" end="2040" vehsPerHour="1800" departLane="random" departSpeed="max"/>
  <flow id="f149" type="car" route="N_S" begin="2040" end="2100" vehsPerHour="2366" departLane="random" departSpeed="max"/>
  <flow id="f150" type="car" route="S_E" begin="2040" end="2100" vehsPerHour="50" departLane="random" departSpeed="max"/>
  <flow id="f151" type="car" route="E_W" begin="2040" end="2100" vehsPerHour="2308" departLane="random" departSpeed="max"/>
  <flow id="f152" type="car" route="W_S" begin="2040" end="2100" vehsPerHour="1200" departLane="random" departSpeed="max"/>
  <flow id="f153" type="car" route="W_E" begin="2040" end="2100" vehsPerHour="800" departLane="random" departSpeed="max"/>
  <flow id="f154" type="car" route="N_W" begin="2040" end="2100" vehsPerHour="1638" departLane="random" departSpeed="max"/>
  <flow id="f155" type="car" route="N_W" begin="2100" end="2160" vehsPerHour="800" departLane="random" departSpeed="max"/>
  <flow id="f156" type="car" route="E_N" begin="2160" end="2220" vehsPerHour="50" departLane="random" departSpeed="max"/>
  <flow id="f157" type="car" route="W_E" begin="2160" end="2220" vehsPerHour="50" departLane="random" departSpeed="max"/>
  <flow id="f158" type="car" route="N_S" begin="2220" end="2280" vehsPerHour="400" departLane="random" departSpeed="max"/>
  <flow id="f159" type="car" route="S_E" begin="2220" end="2280" vehsPerHour="1800" departLane="random" departSpeed="max"/>
  <flow id="f160" type="car" route="W_S" begin="2220" end="2280" vehsPerHour="400" departLane="random" departSpeed="max"/>
  <flow id="f161" type="car" route="N_W" begin="2220" end="2280" vehsPerHour="1200" departLane="random" departSpeed="max"/>
  <flow id="f162" type="car" route="E_N" begin="2220" end="2280" vehsPerHour="100" departLane="random" departSpeed="max"/>
  <flow id="f163" type="car" route="W_E" begin="2220" end="2280" vehsPerHour="200" departLane="random" departSpeed="max"/>
  <flow id="f164" type="car" route="S_N" begin="2220" end="2280" vehsPerHour="1200" departLane="random" departSpeed="max"/>
  <flow id="f165" type="car" route="E_W" begin="2220" end="2280" vehsPerHour="800" departLane="random" departSpeed="max"/>
  <flow id="f166" type="car" route="N_S" begin="2280" end="2340" vehsPerHour="400" departLane="random" departSpeed="max"/>
  <flow id="f167" type="car" route="E_W" begin="2280" end="2340" vehsPerHour="1605" departLane="random" departSpeed="max"/>
  <flow id="f168" type="car" route="W_S" begin="2280" end="2340" vehsPerHour="1200" departLane="random" departSpeed="max"/>
  <flow id="f169" type="car" route="S_E" begin="2280" end="2340" vehsPerHour="1795" departLane="random" departSpeed="max"/>
  <flow id="f170" type="car" route="S_N" begin="2280" end="2340" vehsPerHour="800" departLane="random" departSpeed="max"/>
  <flow id="f171" type="car" route="E_N" begin="2280" end="2340" vehsPerHour="50" departLane="random" departSpeed="max"/>
  <flow id="f172" type="car" route="E_N" begin="2340" end="2400" vehsPerHour="400" departLane="random" departSpeed="max"/>
  <flow id="f173" type="car" route="S_E" begin="2340" end="2400" vehsPerHour="2284" departLane="random" departSpeed="max"/>
  <flow id="f174" type="car" route="N_S" begin="2340" end="2400" vehsPerHour="1200" departLane="random" departSpeed="max"/>
  <flow id="f175" type="car" route="S_N" begin="2340" end="2400" vehsPerHour="2392" departLane="random" departSpeed="max"/>
  <flow id="f176" type="car" route="W_E" begin="2340" end="2400" vehsPerHour="800" departLane="random" departSpeed="max"/>
  <flow id="f177" type="car" route="N_W" begin="2340" end="2400" vehsPerHour="1200" departLane="random" departSpeed="max"/>
  <flow id="f178" type="car" route="E_W" begin="2340" end="2400" vehsPerHour="400" departLane="random" departSpeed="max"/>
  <flow id="f179" type="car" route="W_S" begin="2340" end="2400" vehsPerHour="1800" departLane="random" departSpeed="max"/>
  <flow id="f180" type="car" route="S_E" begin="2400" end="2460" vehsPerHour="800" departLane="random" departSpeed="max"/>
  <flow id="f181" type="car" route="W_S" begin="2400" end="2460" vehsPerHour="400" departLane="random" departSpeed="max"/>
  <flow id="f182" type="car" route="N_W" begin="2400" end="2460" vehsPerHour="200" departLane="random" departSpeed="max"/>
  <flow id="f183" type="car" route="W_E" begin="2460" end="2520" vehsPerHour="1870" departLane="random" departSpeed="max"/>
  <flow id="f184" type="car" route="W_S" begin="2520" end="2580" vehsPerHour="1800" departLane="random" departSpeed="max"/>
  <flow id="f185" type="car" route="N_W" begin="2520" end="2580" vehsPerHour="1952" departLane="random" departSpeed="max"/>
  <flow id="f186" type="car" route="S_E" begin="2580" end="2640" vehsPerHour="400" departLane="random" departSpeed="max"/>
  <flow id="f187" type="car" route="N_S" begin="2580" end="2640" vehsPerHour="1851" departLane="random" departSpeed="max"/>
  <flow id="f188" type="car" route="N_W" begin="2580" end="2640" vehsPerHour="1865" departLane="random" departSpeed="max"/>
  <flow id="f189" type="car" route="S_N" begin="2580" end="2640" vehsPerHour="1578" departLane="random" departSpeed="max"/>
  <flow id="f190" type="car" route="E_W" begin="2580" end="2640" vehsPerHour="200" departLane="random" departSpeed="max"/>
  <flow id="f191" type="car" route="W_E" begin="2580" end="2640" vehsPerHour="1500" departLane="random" departSpeed="max"/>
  <flow id="f192" type="car" route="E_W" begin="2640" end="2700" vehsPerHour="2165" departLane="random" departSpeed="max"/>
  <flow id="f193" type="car" route="S_E" begin="2640" end="2700" vehsPerHour="800" departLane="random" departSpeed="max"/>
  <flow id="f194" type="car" route="S_N" begin="2640" end="2700" vehsPerHour="2309" departLane="random" departSpeed="max"/>
  <flow id="f195" type="car" route="N_S" begin="2640" end="2700" vehsPerHour="2467" departLane="random" departSpeed="max"/>
  <flow id="f196" type="car" route="E_N" begin="2640" end="2700" vehsPerHour="1200" departLane="random" departSpeed="max"/>
  <flow id="f197" type="car" route="W_S" begin="2700" end="2760" vehsPerHour="50" departLane="random" departSpeed="max"/>
  <flow id="f198" type="car" route="N_S" begin="2700" end="2760" vehsPerHour="400" departLane="random" departSpeed="max"/>
  <flow id="f199" type="car" route="S_E" begin="2700" end="2760" vehsPerHour="400" departLane="random" departSpeed="max"/>
  <flow id="f200" type="car" route="E_N" begin="2700" end="2760" vehsPerHour="1800" departLane="random" departSpeed="max"/>
  <flow id="f201" type="car" route="S_N" begin="2700" end="2760" vehsPerHour="800" departLane="random" departSpeed="max"/>
  <flow id="f202" type="car" route="W_E" begin="2700" end="2760" vehsPerHour="1800" departLane="random" departSpeed="max"/>
  <flow id="f203" type="car" route="E_N" begin="2760" end="2820" vehsPerHour="50" departLane="random" departSpeed="max"/>
  <flow id="f204" type="car" route="S_E" begin="2760" end="2820" vehsPerHour="400" departLane="random" departSpeed="max"/>
  <flow id="f205" type="car" route="E_W" begin="2760" end="2820" vehsPerHour="800" departLane="random" departSpeed="max"/>
  <flow id="f206" type="car" route="N_S" begin="2760" end="2820" vehsPerHour="50" departLane="random" departSpeed="max"/>
  <flow id="f207" type="car" route="E_N" begin="2820" end="2880" vehsPerHour="1881" departLane="random" departSpeed="max"/>
  <flow id="f208" type="car" route="S_N" begin="2820" end="2880" vehsPerHour="400" departLane="random" departSpeed="max"/>
  <flow id="f209" type="car" route="W_S" begin="2820" end="2880" vehsPerHour="1800" departLane="random" departSpeed="max"/>
  <flow id="f210" type="car" route="W_E" begin="2820" end="2880" vehsPerHour="800" departLane="random" departSpeed="max"/>
  <flow id="f211" type="car" route="E_W" begin="2820" end="2880" vehsPerHour="1800" departLane="random" departSpeed="max"/>
  <flow id="f212" type="car" route="S_E" begin="2820" end="2880" vehsPerHour="400" departLane="random" departSpeed="max"/>
  <flow id="f213" type="car" route="N_S" begin="2820" end="2880" vehsPerHour="100" departLane="random" departSpeed="max"/>
  <flow id="f214" type="car" route="N_S" begin="2880" end="2940" vehsPerHour="200" departLane="random" departSpeed="max"/>
  <flow id="f215" type="car" route="W_E" begin="2880" end="2940" vehsPerHour="100" departLane="random" departSpeed="max"/>
  <flow id="f216" type="car" route="E_W" begin="2880" end="2940" vehsPerHour="1603" departLane="random" departSpeed="max"/>
  <flow id="f217" type="car" route="N_W" begin="2880" end="2940" vehsPerHour="2468" departLane="random" departSpeed="max"/>
  <flow id="f218" type="car" route="S_E" begin="2880" end="2940" vehsPerHour="800" departLane="random" departSpeed="max"/>
  <flow id="f219" type="car" route="W_S" begin="2880" end="2940" vehsPerHour="1992" departLane="random" departSpeed="max"/>
  <flow id="f220" type="car" route="W_E" begin="2940" end="3000" vehsPerHour="100" departLane="random" departSpeed="max"/>
  <flow id="f221" type="car" route="W_S" begin="2940" end="3000" vehsPerHour="200" departLane="random" departSpeed="max"/>
</routes>
