<?xml version="1.0" encoding="UTF-8"?>

<!-- generated on 2026-01-24 22:59:50 by Eclipse SUMO netconvert Version 1.24.0
<netconvertConfiguration xmlns:xsi="http://www.w3.org/2001/XMLSchema-instance" xsi:noNamespaceSchemaLocation="http://sumo.dlr.de/xsd/netconvertConfiguration.xsd">

    <input>
        <node-files value="intersection.nod.xml"/>
        <edge-files value="intersection.edg.xml"/>
    </input>

    <output>
        <output-file value="intersection.net.xml"/>
    </output>

</netconvertConfiguration>
-->

<net version="1.20" junctionCornerDetail="5" limitTurnSpeed="5.50" xmlns:xsi="http://www.w3.org/2001/XMLSchema-instance" xsi:noNamespaceSchemaLocation="http://sumo.dlr.de/xsd/net_file.xsd">

    <location netOffset="200.00,200.00" convBoundary="0.00,0.00,400.00,400.00" origBoundary="-200.00,-200.00,200.00,200.00" projParameter="!"/>

    <edge id=":center_0" function="internal">
        <lane id=":center_0_0" index="0" speed="6.51" length="9.03" shape="192.00,213.60 191.65,211.15 190.60,209.40 188.85,208.35 186.40,208.00"/>
    </edge>
    <edge id=":center_1" function="internal">
        <lane id=":center_1_0" index="0" speed="13.90" length="27.20" shape="192.00,213.60 192.00,186.40"/>
        <lane id=":center_1_1" index="1" speed="13.90" length="27.20" shape="195.20,213.60 195.20,186.40"/>
        <lane id=":center_1_2" index="2" speed="13.90" length="27.20" shape="198.40,213.60 198.40,186.40"/>
    </edge>
    <edge id=":center_4" function="internal">
        <lane id=":center_4_0" index="0" speed="10.36" length="5.01" shape="198.40,213.60 199.11,208.64"/>
    </edge>
    <edge id=":center_5" function="internal">
        <lane id=":center_5_0" index="0" speed="3.65" length="1.44" shape="198.40,213.60 199.20,212.40"/>
    </edge>
    <edge id=":center_24" function="internal">
        <lane id=":center_24_0" index="0" speed="10.36" length="19.50" shape="199.11,208.64 199.35,206.95 202.20,202.20 206.95,199.35 213.60,198.40"/>
    </edge>
    <edge id=":center_25" function="internal">
        <lane id=":center_25_0" index="0" speed="3.65" length="3.23" shape="199.20,212.40 200.00,212.00 200.80,212.40 201.60,213.60"/>
    </edge>
    <edge id=":center_6" function="internal">
        <lane id=":center_6_0" index="0" speed="6.51" length="9.03" shape="213.60,208.00 211.15,208.35 209.40,209.40 208.35,211.15 208.00,213.60"/>
    </edge>
    <edge id=":center_7" function="internal">
        <lane id=":center_7_0" index="0" speed="13.90" length="27.20" shape="213.60,208.00 186.40,208.00"/>
        <lane id=":center_7_1" index="1" speed="13.90" length="27.20" shape="213.60,204.80 186.40,204.80"/>
        <lane id=":center_7_2" index="2" speed="13.90" length="27.20" shape="213.60,201.60 186.40,201.60"/>
    </edge>
    <edge id=":center_10" function="internal">
        <lane id=":center_10_0" index="0" speed="10.36" length="5.01" shape="213.60,201.60 208.64,200.89"/>
    </edge>
    <edge id=":center_11" function="internal">
        <lane id=":center_11_0" index="0" speed="3.65" length="1.44" shape="213.60,201.60 212.40,200.80"/>
    </edge>
    <edge id=":center_26" function="internal">
        <lane id=":center_26_0" index="0" speed="10.36" length="19.50" shape="208.64,200.89 206.95,200.65 202.20,197.80 199.35,193.05 198.40,186.40"/>
    </edge>
    <edge id=":center_27" function="internal">
        <lane id=":center_27_0" index="0" speed="3.65" length="3.23" shape="212.40,200.80 212.00,200.00 212.40,199.20 213.60,198.40"/>
    </edge>
    <edge id=":center_12" function="internal">
        <lane id=":center_12_0" index="0" speed="6.51" length="9.03" shape="208.00,186.40 208.35,188.85 209.40,190.60 211.15,191.65 213.60,192.00"/>
    </edge>
    <edge id=":center_13" function="internal">
        <lane id=":center_13_0" index="0" speed="13.90" length="27.20" shape="208.00,186.40 208.00,213.60"/>
        <lane id=":center_13_1" index="1" speed="13.90" length="27.20" shape="204.80,186.40 204.80,213.60"/>
        <lane id=":center_13_2" index="2" speed="13.90" length="27.20" shape="201.60,186.40 201.60,213.60"/>
    </edge>
    <edge id=":center_16" function="internal">
        <lane id=":center_16_0" index="0" speed="10.36" length="5.01" shape="201.60,186.40 200.89,191.36"/>
    </edge>
    <edge id=":center_17" function="internal">
        <lane id=":center_17_0" index="0" speed="3.65" length="1.44" shape="201.60,186.40 200.80,187.60"/>
    </edge>
    <edge id=":center_28" function="internal">
        <lane id=":center_28_0" index="0" speed="10.36" length="19.50" shape="200.89,191.36 200.65,193.05 197.80,197.80 193.05,200.65 186.40,201.60"/>
    </edge>
    <edge id=":center_29" function="internal">
        <lane id=":center_29_0" index="0" speed="3.65" length="3.23" shape="200.80,187.60 200.00,188.00 199.20,187.60 198.40,186.40"/>
    </edge>
    <edge id=":center_18" function="internal">
        <lane id=":center_18_0" index="0" speed="6.51" length="9.03" shape="186.40,192.00 188.85,191.65 190.60,190.60 191.65,188.85 192.00,186.40"/>
    </edge>
    <edge id=":center_19" function="internal">
        <lane id=":center_19_0" index="0" speed="13.90" length="27.20" shape="186.40,192.00 213.60,192.00"/>
        <lane id=":center_19_1" index="1" speed="13.90" length="27.20" shape="186.40,195.20 213.60,195.20"/>
        <lane id=":center_19_2" index="2" speed="13.90" length="27.20" shape="186.40,198.40 213.60,198.40"/>
    </edge>
    <edge id=":center_22" function="internal">
        <lane id=":center_22_0" index="0" speed="10.36" length="5.01" shape="186.40,198.40 191.36,199.11"/>
    </edge>
    <edge id=":center_23" function="internal">
        <lane id=":center_23_0" index="0" speed="3.65" length="1.44" shape="186.40,198.40 187.60,199.20"/>
    </edge>
    <edge id=":center_30" function="internal">
        <lane id=":center_30_0" index="0" speed="10.36" length="19.50" shape="191.36,199.11 193.05,199.35 197.80,202.20 200.65,206.95 201.60,213.60"/>
    </edge>
    <edge id=":center_31" function="internal">
        <lane id=":center_31_0" index="0" speed="3.65" length="3.23" shape="187.60,199.20 188.00,200.00 187.60,200.80 186.40,201.60"/>
    </edge>
    <edge id=":east_0" function="internal">
        <lane id=":east_0_0" index="0" speed="3.65" length="4.67" shape="400.00,198.40 401.20,199.20 401.60,200.00 401.20,200.80 400.00,201.60"/>
    </edge>
    <edge id=":north_0" function="internal">
        <lane id=":north_0_0" index="0" speed="3.65" length="4.67" shape="201.60,400.00 200.80,401.20 200.00,401.60 199.20,401.20 198.40,400.00"/>
    </edge>
    <edge id=":south_0" function="internal">
        <lane id=":south_0_0" index="0" speed="3.65" length="4.67" shape="198.40,0.00 199.20,-1.20 200.00,-1.60 200.80,-1.20 201.60,0.00"/>
    </edge>
    <edge id=":west_0" function="internal">
        <lane id=":west_0_0" index="0" speed="3.65" length="4.67" shape="0.00,201.60 -1.20,200.80 -1.60,200.00 -1.20,199.20 0.00,198.40"/>
    </edge>

    <edge id="c2e" from="center" to="east" priority="-1">
        <lane id="c2e_0" index="0" speed="13.90" length="186.40" shape="213.60,192.00 400.00,192.00"/>
        <lane id="c2e_1" index="1" speed="13.90" length="186.40" shape="213.60,195.20 400.00,195.20"/>
        <lane id="c2e_2" index="2" speed="13.90" length="186.40" shape="213.60,198.40 400.00,198.40"/>
    </edge>
    <edge id="c2n" from="center" to="north" priority="-1">
        <lane id="c2n_0" index="0" speed="13.90" length="186.40" shape="208.00,213.60 208.00,400.00"/>
        <lane id="c2n_1" index="1" speed="13.90" length="186.40" shape="204.80,213.60 204.80,400.00"/>
        <lane id="c2n_2" index="2" speed="13.90" length="186.40" shape="201.60,213.60 201.60,400.00"/>
    </edge>
    <edge id="c2s" from="center" to="south" priority="-1">
        <lane id="c2s_0" index="0" speed="13.90" length="186.40" shape="192.00,186.40 192.00,0.00"/>
        <lane id="c2s_1" index="1" speed="13.90" length="186.40" shape="195.20,186.40 195.20,0.00"/>
        <lane id="c2s_2" index="2" speed="13.90" length="186.40" shape="198.40,186.40 198.40,0.00"/>
    </edge>
    <edge id="c2w" from="center" to="west" priority="-1">
        <lane id="c2w_0" index="0" speed="13.90" length="186.40" shape="186.40,208.00 0.00,208.00"/>
        <lane id="c2w_1" index="1" speed="13.90" length="186.40" shape="186.40,204.80 0.00,204.80"/>
        <lane id="c2w_2" index="2" speed="13.90" length="186.40" shape="186.40,201.60 0.00,201.60"/>
    </edge>
    <edge id="e2c" from="east" to="center" priority="-1">
        <lane id="e2c_0" index="0" speed="13.90" length="186.40" shape="400.00,208.00 213.60,208.00"/>
        <lane id="e2c_1" index="1" speed="13.90" length="186.40" shape="400.00,204.80 213.60,204.80"/>
        <lane id="e2c_2" index="2" speed="13.90" length="186.40" shape="400.00,201.60 213.60,201.60"/>
    </edge>
    <edge id="n2c" from="north" to="center" priority="-1">
        <lane id="n2c_0" index="0" speed="13.90" length="186.40" shape="192.00,400.00 192.00,213.60"/>
        <lane id="n2c_1" index="1" speed="13.90" length="186.40" shape="195.20,400.00 195.20,213.60"/>
        <lane id="n2c_2" index="2" speed="13.90" length="186.40" shape="198.40,400.00 198.40,213.60"/>
    </edge>
    <edge id="s2c" from="south" to="center" priority="-1">
        <lane id="s2c_0" index="0" speed="13.90" length="186.40" shape="208.00,0.00 208.00,186.40"/>
        <lane id="s2c_1" index="1" speed="13.90" length="186.40" shape="204.80,0.00 204.80,186.40"/>
        <lane id="s2c_2" index="2" speed="13.90" length="186.40" shape="201.60,0.00 201.60,186.40"/>
    </edge>
    <edge id="w2c" from="west" to="center" priority="-1">
        <lane id="w2c_0" index="0" speed="13.90" length="186.40" shape="0.00,192.00 186.40,192.00"/>
        <lane id="w2c_1" index="1" speed="13.90" length="186.40" shape="0.00,195.20 186.40,195.20"/>
        <lane id="w2c_2" index="2" speed="13.90" length="186.40" shape="0.00,198.40 186.40,198.40"/>
    </edge>

    <tlLogic id="center" type="static" programID="0" offset="0">
        <phase duration="42" state="GGGGggsrrrrrGGGGggsrrrrr"/>
        <phase duration="3"  state="yyyyyysrrrrryyyyyysrrrrr"/>
        <phase duration="42" state="srrrrrGGGGggsrrrrrGGGGgg"/>
        <phase duration="3"  state="srrrrryyyyyysrrrrryyyyyy"/>
    </tlLogic>

    <junction id="center" type="traffic_light_right_on_red" x="200.00" y="200.00" incLanes="n2c_0 n2c_1 n2c_2 e2c_0 e2c_1 e2c_2 s2c_0 s2c_1 s2c_2 w2c_0 w2c_1 w2c_2" intLanes=":center_0_0 :center_1_0 :center_1_1 :center_1_2 :center_24_0 :center_25_0 :center_6_0 :center_7_0 :center_7_1 :center_7_2 :center_26_0 :center_27_0 :center_12_0 :center_13_0 :center_13_1 :center_13_2 :center_28_0 :center_29_0 :center_18_0 :center_19_0 :center_19_1 :center_19_2 :center_30_0 :center_31_0" shape="190.40,213.60 209.60,213.60 210.04,211.38 210.60,210.60 211.38,210.04 212.38,209.71 213.60,209.60 213.60,190.40 211.38,189.96 210.60,189.40 210.04,188.62 209.71,187.62 209.60,186.40 190.40,186.40 189.96,188.62 189.40,189.40 188.62,189.96 187.62,190.29 186.40,190.40 186.40,209.60 188.62,210.04 189.40,210.60 189.96,211.38 190.29,212.38">
        <request index="0"  response="000000000000001110000000" foes="000000000000001110000000" cont="0"/>
        <request index="1"  response="010000000000010000000000" foes="011111110000011110000000" cont="0"/>
        <request index="2"  response="010000000000010000000000" foes="011111110000011110000000" cont="0"/>
        <request index="3"  response="010000000000010000000000" foes="011111110000011110000000" cont="0"/>
        <request index="4"  response="010000001110010000000000" foes="011110001110111110000000" cont="1"/>
        <request index="5"  response="010000001110000000000000" foes="010000001110000000000000" cont="1"/>
        <request index="6"  response="000000001110000000000000" foes="000000001110000000000000" cont="0"/>
        <request index="7"  response="000000011110000000011111" foes="110000011110000000011111" cont="0"/>
        <request index="8"  response="000000011110000000011111" foes="110000011110000000011111" cont="0"/>
        <request index="9"  response="000000011110000000011111" foes="110000011110000000011111" cont="0"/>
        <request index="10" response="001110011110000000011110" foes="001110111110000000011110" cont="1"/>
        <request index="11" response="001110000000000000010000" foes="001110000000000000010000" cont="1"/>
        <request index="12" response="001110000000000000000000" foes="001110000000000000000000" cont="0"/>
        <request index="13" response="010000000000010000000000" foes="011110000000011111110000" cont="0"/>
        <request index="14" response="010000000000010000000000" foes="011110000000011111110000" cont="0"/>
        <request index="15" response="010000000000010000000000" foes="011110000000011111110000" cont="0"/>
        <request index="16" response="010000000000010000001110" foes="111110000000011110001110" cont="1"/>
        <request index="17" response="000000000000010000001110" foes="000000000000010000001110" cont="1"/>
        <request index="18" response="000000000000000000001110" foes="000000000000000000001110" cont="0"/>
        <request index="19" response="000000011111000000011110" foes="000000011111110000011110" cont="0"/>
        <request index="20" response="000000011111000000011110" foes="000000011111110000011110" cont="0"/>
        <request index="21" response="000000011111000000011110" foes="000000011111110000011110" cont="0"/>
        <request index="22" response="000000011110001110011110" foes="000000011110001110111110" cont="1"/>
        <request index="23" response="000000010000001110000000" foes="000000010000001110000000" cont="1"/>
    </junction>
    <junction id="east" type="priority" x="400.00" y="200.00" incLanes="c2e_0 c2e_1 c2e_2" intLanes=":east_0_0" shape="400.00,200.00 400.00,190.40 400.00,200.00">
        <request index="0" response="0" foes="0" cont="0"/>
    </junction>
    <junction id="north" type="priority" x="200.00" y="400.00" incLanes="c2n_0 c2n_1 c2n_2" intLanes=":north_0_0" shape="200.00,400.00 209.60,400.00 200.00,400.00">
        <request index="0" response="0" foes="0" cont="0"/>
    </junction>
    <junction id="south" type="priority" x="200.00" y="0.00" incLanes="c2s_0 c2s_1 c2s_2" intLanes=":south_0_0" shape="200.00,0.00 190.40,0.00 200.00,0.00">
        <request index="0" response="0" foes="0" cont="0"/>
    </junction>
    <junction id="west" type="priority" x="0.00" y="200.00" incLanes="c2w_0 c2w_1 c2w_2" intLanes=":west_0_0" shape="0.00,200.00 0.00,209.60 0.00,200.00">
        <request index="0" response="0" foes="0" cont="0"/>
    </junction>

    <junction id=":center_24_0" type="internal" x="199.11" y="208.64" incLanes=":center_4_0 s2c_0 s2c_1 s2c_2" intLanes=":center_7_0 :center_7_1 :center_7_2 :center_10_0 :center_11_0 :center_12_0 :center_13_0 :center_13_1 :center_13_2 :center_19_0 :center_19_1 :center_19_2 :center_22_0"/>
    <junction id=":center_25_0" type="internal" x="199.20" y="212.40" incLanes=":center_5_0 e2c_0 s2c_0 s2c_1 s2c_2 w2c_2" intLanes=":center_6_0 :center_13_0 :center_13_1 :center_13_2 :center_22_0"/>
    <junction id=":center_26_0" type="internal" x="208.64" y="200.89" incLanes=":center_10_0 w2c_0 w2c_1 w2c_2" intLanes=":center_1_0 :center_1_1 :center_1_2 :center_4_0 :center_13_0 :center_13_1 :center_13_2 :center_16_0 :center_17_0 :center_18_0 :center_19_0 :center_19_1 :center_19_2"/>
    <junction id=":center_27_0" type="internal" x="212.40" y="200.80" incLanes=":center_11_0 n2c_2 s2c_0 w2c_0 w2c_1 w2c_2" intLanes=":center_4_0 :center_12_0 :center_19_0 :center_19_1 :center_19_2"/>
    <junction id=":center_28_0" type="internal" x="200.89" y="191.36" incLanes=":center_16_0 n2c_0 n2c_1 n2c_2" intLanes=":center_0_0 :center_1_0 :center_1_1 :center_1_2 :center_7_0 :center_7_1 :center_7_2 :center_10_0 :center_19_0 :center_19_1 :center_19_2 :center_22_0 :center_23_0"/>
    <junction id=":center_29_0" type="internal" x="200.80" y="187.60" incLanes=":center_17_0 e2c_2 n2c_0 n2c_1 n2c_2 w2c_0" intLanes=":center_1_0 :center_1_1 :center_1_2 :center_10_0 :center_18_0"/>
    <junction id=":center_30_0" type="internal" x="191.36" y="199.11" incLanes=":center_22_0 e2c_0 e2c_1 e2c_2" intLanes=":center_1_0 :center_1_1 :center_1_2 :center_4_0 :center_5_0 :center_6_0 :center_7_0 :center_7_1 :center_7_2 :center_13_0 :center_13_1 :center_13_2 :center_16_0"/>
    <junction id=":center_31_0" type="internal" x="187.60" y="199.20" incLanes=":center_23_0 e2c_0 e2c_1 e2c_2 n2c_0 s2c_2" intLanes=":center_0_0 :center_7_0 :center_7_1 :center_7_2 :center_16_0"/>

    <connection from="c2e" to="e2c" fromLane="2" toLane="2" via=":east_0_0" dir="t" state="M"/>
    <connection from="c2n" to="n2c" fromLane="2" toLane="2" via=":north_0_0" dir="t" state="M"/>
    <connection from="c2s" to="s2c" fromLane="2" toLane="2" via=":south_0_0" dir="t" state="M"/>
    <connection from="c2w" to="w2c" fromLane="2" toLane="2" via=":west_0_0" dir="t" state="M"/>
    <connection from="e2c" to="c2n" fromLane="0" toLane="0" via=":center_6_0" tl="center" linkIndex="6" dir="r" state="o"/>
    <connection from="e2c" to="c2w" fromLane="0" toLane="0" via=":center_7_0" tl="center" linkIndex="7" dir="s" state="o"/>
    <connection from="e2c" to="c2w" fromLane="1" toLane="1" via=":center_7_1" tl="center" linkIndex="8" dir="s" state="o"/>
    <connection from="e2c" to="c2w" fromLane="2" toLane="2" via=":center_7_2" tl="center" linkIndex="9" dir="s" state="o"/>
    <connection from="e2c" to="c2s" fromLane="2" toLane="2" via=":center_10_0" tl="center" linkIndex="10" dir="l" state="o"/>
    <connection from="e2c" to="c2e" fromLane="2" toLane="2" via=":center_11_0" tl="center" linkIndex="11" dir="t" state="o"/>
    <connection from="n2c" to="c2w" fromLane="0" toLane="0" via=":center_0_0" tl="center" linkIndex="0" dir="r" state="O"/>
    <connection from="n2c" to="c2s" fromLane="0" toLane="0" via=":center_1_0" tl="center" linkIndex="1" dir="s" state="O"/>
    <connection from="n2c" to="c2s" fromLane="1" toLane="1" via=":center_1_1" tl="center" linkIndex="2" dir="s" state="O"/>
    <connection from="n2c" to="c2s" fromLane="2" toLane="2" via=":center_1_2" tl="center" linkIndex="3" dir="s" state="O"/>
    <connection from="n2c" to="c2e" fromLane="2" toLane="2" via=":center_4_0" tl="center" linkIndex="4" dir="l" state="o"/>
    <connection from="n2c" to="c2n" fromLane="2" toLane="2" via=":center_5_0" tl="center" linkIndex="5" dir="t" state="o"/>
    <connection from="s2c" to="c2e" fromLane="0" toLane="0" via=":center_12_0" tl="center" linkIndex="12" dir="r" state="O"/>
    <connection from="s2c" to="c2n" fromLane="0" toLane="0" via=":center_13_0" tl="center" linkIndex="13" dir="s" state="O"/>
    <connection from="s2c" to="c2n" fromLane="1" toLane="1" via=":center_13_1" tl="center" linkIndex="14" dir="s" state="O"/>
    <connection from="s2c" to="c2n" fromLane="2" toLane="2" via=":center_13_2" tl="center" linkIndex="15" dir="s" state="O"/>
    <connection from="s2c" to="c2w" fromLane="2" toLane="2" via=":center_16_0" tl="center" linkIndex="16" dir="l" state="o"/>
    <connection from="s2c" to="c2s" fromLane="2" toLane="2" via=":center_17_0" tl="center" linkIndex="17" dir="t" state="o"/>
    <connection from="w2c" to="c2s" fromLane="0" toLane="0" via=":center_18_0" tl="center" linkIndex="18" dir="r" state="o"/>
    <connection from="w2c" to="c2e" fromLane="0" toLane="0" via=":center_19_0" tl="center" linkIndex="19" dir="s" state="o"/>
    <connection from="w2c" to="c2e" fromLane="1" toLane="1" via=":center_19_1" tl="center" linkIndex="20" dir="s" state="o"/>
    <connection from="w2c" to="c2e" fromLane="2" toLane="2" via=":center_19_2" tl="center" linkIndex="21" dir="s" state="o"/>
    <connection from="w2c" to="c2n" fromLane="2" toLane="2" via=":center_22_0" tl="center" linkIndex="22" dir="l" state="o"/>
    <connection from="w2c" to="c2w" fromLane="2" toLane="2" via=":center_23_0" tl="center" linkIndex="23" dir="t" state="o"/>

    <connection from=":center_0" to="c2w" fromLane="0" toLane="0" dir="r" state="M"/>
    <connection from=":center_1" to="c2s" fromLane="0" toLane="0" dir="s" state="M"/>
    <connection from=":center_1" to="c2s" fromLane="1" toLane="1" dir="s" state="M"/>
    <connection from=":center_1" to="c2s" fromLane="2" toLane="2" dir="s" state="M"/>
    <connection from=":center_4" to="c2e" fromLane="0" toLane="2" via=":center_24_0" dir="l" state="m"/>
    <connection from=":center_24" to="c2e" fromLane="0" toLane="2" dir="l" state="M"/>
    <connection from=":center_5" to="c2n" fromLane="0" toLane="2" via=":center_25_0" dir="t" state="m"/>
    <connection from=":center_25" to="c2n" fromLane="0" toLane="2" dir="t" state="M"/>
    <connection from=":center_6" to="c2n" fromLane="0" toLane="0" dir="r" state="M"/>
    <connection from=":center_7" to="c2w" fromLane="0" toLane="0" dir="s" state="M"/>
    <connection from=":center_7" to="c2w" fromLane="1" toLane="1" dir="s" state="M"/>
    <connection from=":center_7" to="c2w" fromLane="2" toLane="2" dir="s" state="M"/>
    <connection from=":center_10" to="c2s" fromLane="0" toLane="2" via=":center_26_0" dir="l" state="m"/>
    <connection from=":center_26" to="c2s" fromLane="0" toLane="2" dir="l" state="M"/>
    <connection from=":center_11" to="c2e" fromLane="0" toLane="2" via=":center_27_0" dir="t" state="m"/>
    <connection from=":center_27" to="c2e" fromLane="0" toLane="2" dir="t" state="M"/>
    <connection from=":center_12" to="c2e" fromLane="0" toLane="0" dir="r" state="M"/>
    <connection from=":center_13" to="c2n" fromLane="0" toLane="0" dir="s" state="M"/>
    <connection from=":center_13" to="c2n" fromLane="1" toLane="1" dir="s" state="M"/>
    <connection from=":center_13" to="c2n" fromLane="2" toLane="2" dir="s" state="M"/>
    <connection from=":center_16" to="c2w" fromLane="0" toLane="2" via=":center_28_0" dir="l" state="m"/>
    <connection from=":center_28" to="c2w" fromLane="0" toLane="2" dir="l" state="M"/>
    <connection from=":center_17" to="c2s" fromLane="0" toLane="2" via=":center_29_0" dir="t" state="m"/>
    <connection from=":center_29" to="c2s" fromLane="0" toLane="2" dir="t" state="M"/>
    <connection from=":center_18" to="c2s" fromLane="0" toLane="0" dir="r" state="M"/>
    <connection from=":center_19" to="c2e" fromLane="0" toLane="0" dir="s" state="M"/>
    <connection from=":center_19" to="c2e" fromLane="1" toLane="1" dir="s" state="M"/>
    <connection from=":center_19" to="c2e" fromLane="2" toLane="2" dir="s" state="M"/>
    <connection from=":center_22" to="c2n" fromLane="0" toLane="2" via=":center_30_0" dir="l" state="m"/>
    <connection from=":center_30" to="c2n" fromLane="0" toLane="2" dir="l" state="M"/>
    <connection from=":center_23" to="c2w" fromLane="0" toLane="2" via=":center_31_0" dir="t" state="m"/>
    <connection from=":center_31" to="c2w" fromLane="0" toLane="2" dir="t" state="M"/>
    <connection from=":east_0" to="e2c" fromLane="0" toLane="2" dir="t" state="M"/>
    <connection from=":north_0" to="n2c" fromLane="0" toLane="2" dir="t" state="M"/>
    <connection from=":south_0" to="s2c" fromLane="0" toLane="2" dir="t" state="M"/>
    <connection from=":west_0" to="w2c" fromLane="0" toLane="2" dir="t" state="M"/>

</net>
