<?xml version="1.0" encoding="UTF-8"?>

<!-- generated on 2026-01-25 00:35:02 by Eclipse SUMO netedit Version 1.24.0
<neteditConfiguration xmlns:xsi="http://www.w3.org/2001/XMLSchema-instance" xsi:noNamespaceSchemaLocation="http://sumo.dlr.de/xsd/neteditConfiguration.xsd">

    <input>
        <sumo-net-file value="lagos.net.xml"/>
    </input>

    <output>
        <output-file value="lagos.net.xml"/>
    </output>

    <processing>
        <geometry.min-radius.fix.railways value="false"/>
        <geometry.avoid-overlap value="false"/>
        <geometry.max-grade.fix value="false"/>
        <offset.disable-normalization value="true"/>
        <lefthand value="0"/>
    </processing>

    <junctions>
        <no-turnarounds value="true"/>
        <junctions.corner-detail value="5"/>
        <junctions.limit-turn-speed value="5.50"/>
        <rectangular-lane-cut value="0"/>
    </junctions>

    <pedestrian>
        <walkingareas value="0"/>
    </pedestrian>

</neteditConfiguration>
-->

<net version="1.20" junctionCornerDetail="5" limitTurnSpeed="5.50" avoidOverlap="0" xmlns:xsi="http://www.w3.org/2001/XMLSchema-instance" xsi:noNamespaceSchemaLocation="http://sumo.dlr.de/xsd/net_file.xsd">

    <location netOffset="-537698.12,-728242.52" convBoundary="752.79,0.00,4233.75,2226.07" origBoundary="3.341025,6.580916,3.379317,6.622337" projParameter="+proj=utm +zone=31 +ellps=WGS84 +datum=WGS84 +units=m +no_defs"/>

    <type id="highway.footway" priority="1" numLanes="1" speed="2.78" allow="pedestrian" oneway="1" width="2.00"/>
    <type id="highway.primary" priority="12" numLanes="2" speed="27.78" disallow="tram rail_urban rail rail_electric rail_fast ship container cable_car subway aircraft wheelchair scooter drone" oneway="0"/>
    <type id="highway.residential" priority="3" numLanes="1" speed="13.89" disallow="tram rail_urban rail rail_electric rail_fast ship container cable_car subway aircraft wheelchair scooter drone" oneway="0"/>
    <type id="highway.secondary" priority="11" numLanes="1" speed="27.78" disallow="tram rail_urban rail rail_electric rail_fast ship container cable_car subway aircraft wheelchair scooter drone" oneway="0"/>
    <type id="highway.secondary_link" priority="6" numLanes="1" speed="22.22" disallow="tram rail_urban rail rail_electric rail_fast ship container cable_car subway aircraft wheelchair scooter drone" oneway="0"/>
    <type id="highway.service" priority="1" numLanes="1" speed="5.56" allow="pedestrian delivery bicycle" oneway="0"/>
    <type id="highway.tertiary" priority="10" numLanes="1" speed="22.22" disallow="tram rail_urban rail rail_electric rail_fast ship container cable_car subway aircraft wheelchair scooter drone" oneway="0"/>

    <edge id=":10567689612_0" function="internal">
        <lane id=":10567689612_0_0" index="0" allow="pedestrian delivery bicycle" speed="7.39" length="6.41" shape="921.56,2134.02 921.00,2132.01 920.29,2130.45 919.44,2129.33 918.43,2128.66"/>
    </edge>
    <edge id=":10567689612_1" function="internal">
        <lane id=":10567689612_1_0" index="0" disallow="tram rail_urban rail rail_electric rail_fast ship container cable_car subway aircraft wheelchair scooter drone" speed="22.22" length="6.90" shape="924.80,2131.32 918.43,2128.66"/>
    </edge>
    <edge id=":10567689613_0" function="internal">
        <lane id=":10567689613_0_0" index="0" allow="pedestrian delivery bicycle" speed="5.74" length="5.51" shape="940.25,2137.91 939.02,2137.57 937.81,2137.73 936.62,2138.39 935.44,2139.55"/>
    </edge>
    <edge id=":10567689613_1" function="internal">
        <lane id=":10567689613_1_0" index="0" disallow="tram rail_urban rail rail_electric rail_fast ship container cable_car subway aircraft wheelchair scooter drone" speed="22.22" length="6.40" shape="940.25,2137.91 934.40,2135.32"/>
    </edge>
    <edge id=":10567689614_0" function="internal">
        <lane id=":10567689614_0_0" index="0" disallow="tram rail_urban rail rail_electric rail_fast ship container cable_car subway aircraft wheelchair scooter drone" speed="25.00" length="72.50" shape="1023.35,2179.29 958.62,2146.64"/>
    </edge>
    <edge id=":10567689614_1" function="internal">
        <lane id=":10567689614_1_0" index="0" disallow="tram rail_urban rail rail_electric rail_fast ship container cable_car subway aircraft wheelchair scooter drone" speed="27.78" length="70.69" shape="1023.35,2179.29 961.83,2144.30"/>
        <lane id=":10567689614_1_1" index="1" disallow="tram rail_urban rail rail_electric rail_fast ship container cable_car subway aircraft wheelchair scooter drone" speed="27.78" length="70.69" shape="1024.80,2176.44 963.43,2141.52"/>
    </edge>
    <edge id=":12245849483_0" function="internal">
        <lane id=":12245849483_0_0" index="0" disallow="tram rail_urban rail rail_electric rail_fast ship container cable_car subway aircraft wheelchair scooter drone" speed="22.22" length="5.01" shape="890.14,2059.90 891.60,2059.70 892.56,2059.39 893.49,2058.94 894.86,2058.33"/>
    </edge>
    <edge id=":12245849487_0" function="internal">
        <lane id=":12245849487_0_0" index="0" disallow="tram rail_urban rail rail_electric rail_fast ship container cable_car subway aircraft wheelchair scooter drone" speed="22.22" length="5.33" shape="872.44,2101.24 872.27,2099.67 872.14,2098.59 872.07,2097.51 872.05,2095.93"/>
    </edge>
    <edge id=":12245849492_0" function="internal">
        <lane id=":12245849492_0_0" index="0" disallow="tram rail_urban rail rail_electric rail_fast ship container cable_car subway aircraft wheelchair scooter drone" speed="22.22" length="5.85" shape="904.94,2123.34 899.13,2124.00"/>
    </edge>
    <edge id=":12245849494_0" function="internal">
        <lane id=":12245849494_0_0" index="0" disallow="tram rail_urban rail rail_electric rail_fast ship container cable_car subway aircraft wheelchair scooter drone" speed="22.22" length="5.03" shape="934.58,2082.37 936.30,2087.10"/>
    </edge>
    <edge id=":1477869248_0" function="internal">
        <lane id=":1477869248_0_0" index="0" disallow="tram rail_urban rail rail_electric rail_fast ship container cable_car subway aircraft wheelchair scooter drone" speed="9.33" length="7.71" shape="903.98,2054.74 906.17,2054.00 907.75,2053.43 908.98,2052.49 910.08,2050.61"/>
    </edge>
    <edge id=":1477869248_1" function="internal">
        <lane id=":1477869248_1_0" index="0" disallow="tram rail_urban rail rail_electric rail_fast ship container cable_car subway aircraft wheelchair scooter drone" speed="27.78" length="7.84" shape="906.88,2057.77 910.08,2050.61"/>
    </edge>
    <edge id=":1477869288_0" function="internal">
        <lane id=":1477869288_0_0" index="0" disallow="tram rail_urban rail rail_electric rail_fast ship container cable_car subway aircraft wheelchair scooter drone" speed="18.98" length="9.65" shape="927.26,2044.00 926.88,2046.78 927.11,2048.71 927.69,2050.65 928.41,2053.43"/>
    </edge>
    <edge id=":1477869288_1" function="internal">
        <lane id=":1477869288_1_0" index="0" disallow="tram rail_urban rail rail_electric rail_fast ship container cable_car subway aircraft wheelchair scooter drone" speed="27.78" length="9.62" shape="927.26,2044.00 924.57,2053.24"/>
    </edge>
    <edge id=":1477869368_0" function="internal">
        <lane id=":1477869368_0_0" index="0" disallow="tram rail_urban rail rail_electric rail_fast ship container cable_car subway aircraft wheelchair scooter drone" speed="27.78" length="7.85" shape="876.06,2084.01 870.24,2078.74"/>
        <lane id=":1477869368_0_1" index="1" disallow="tram rail_urban rail rail_electric rail_fast ship container cable_car subway aircraft wheelchair scooter drone" speed="27.78" length="7.85" shape="878.21,2081.64 872.40,2076.37"/>
    </edge>
    <edge id=":1477869368_2" function="internal">
        <lane id=":1477869368_2_0" index="0" disallow="tram rail_urban rail rail_electric rail_fast ship container cable_car subway aircraft wheelchair scooter drone" speed="8.71" length="7.44" shape="872.07,2085.78 871.96,2083.33 871.62,2081.33 871.04,2079.81 870.24,2078.74"/>
    </edge>
    <edge id=":1477869861_0" function="internal">
        <lane id=":1477869861_0_0" index="0" disallow="tram rail_urban rail rail_electric rail_fast ship container cable_car subway aircraft wheelchair scooter drone" speed="9.87" length="7.59" shape="871.07,2059.93 872.93,2061.02 874.43,2061.27 876.06,2061.06 878.32,2060.77"/>
    </edge>
    <edge id=":1477869861_1" function="internal">
        <lane id=":1477869861_1_0" index="0" disallow="tram rail_urban rail rail_electric rail_fast ship container cable_car subway aircraft wheelchair scooter drone" speed="27.78" length="7.65" shape="871.07,2059.93 877.14,2064.66"/>
        <lane id=":1477869861_1_1" index="1" disallow="tram rail_urban rail rail_electric rail_fast ship container cable_car subway aircraft wheelchair scooter drone" speed="27.78" length="7.65" shape="869.17,2062.51 875.17,2067.18"/>
    </edge>
    <edge id=":1484934730_0" function="internal">
        <lane id=":1484934730_0_0" index="0" disallow="tram rail_urban rail rail_electric rail_fast ship container cable_car subway aircraft wheelchair scooter drone" speed="11.79" length="8.04" shape="943.17,2106.04 943.87,2108.34 944.33,2110.00 945.14,2111.40 946.85,2112.93"/>
    </edge>
    <edge id=":1484934730_1" function="internal">
        <lane id=":1484934730_1_0" index="0" disallow="tram rail_urban rail rail_electric rail_fast ship container cable_car subway aircraft wheelchair scooter drone" speed="27.78" length="8.02" shape="940.05,2108.52 946.85,2112.93"/>
        <lane id=":1484934730_1_1" index="1" disallow="tram rail_urban rail rail_electric rail_fast ship container cable_car subway aircraft wheelchair scooter drone" speed="27.78" length="8.02" shape="938.30,2111.20 944.96,2115.51"/>
    </edge>
    <edge id=":1484934777_0" function="internal">
        <lane id=":1484934777_0_0" index="0" disallow="tram rail_urban rail rail_electric rail_fast ship container cable_car subway aircraft wheelchair scooter drone" speed="6.67" length="9.34" shape="980.09,2129.17 978.98,2131.56 978.84,2133.71 979.68,2135.62 981.49,2137.30"/>
    </edge>
    <edge id=":1484934777_1" function="internal">
        <lane id=":1484934777_1_0" index="0" disallow="tram rail_urban rail rail_electric rail_fast ship container cable_car subway aircraft wheelchair scooter drone" speed="3.65" length="4.67" shape="980.09,2129.17 978.77,2129.75 977.88,2129.66 977.42,2128.89 977.40,2127.45"/>
    </edge>
    <edge id=":1484934777_2" function="internal">
        <lane id=":1484934777_2_0" index="0" disallow="tram rail_urban rail rail_electric rail_fast ship container cable_car subway aircraft wheelchair scooter drone" speed="6.32" length="9.04" shape="969.75,2128.79 971.93,2130.02 973.94,2130.21 975.76,2129.35 977.40,2127.45"/>
    </edge>
    <edge id=":1484934777_3" function="internal">
        <lane id=":1484934777_3_0" index="0" disallow="tram rail_urban rail rail_electric rail_fast ship container cable_car subway aircraft wheelchair scooter drone" speed="27.78" length="14.60" shape="969.75,2128.79 981.49,2137.30"/>
        <lane id=":1484934777_3_1" index="1" disallow="tram rail_urban rail rail_electric rail_fast ship container cable_car subway aircraft wheelchair scooter drone" speed="27.78" length="14.60" shape="967.80,2131.32 979.69,2139.95"/>
    </edge>
    <edge id=":1489194779_0" function="internal">
        <lane id=":1489194779_0_0" index="0" disallow="tram rail_urban rail rail_electric rail_fast ship container cable_car subway aircraft wheelchair scooter drone" speed="22.22" length="4.82" shape="860.25,2137.82 859.04,2138.57 858.24,2139.14 857.49,2139.77 856.40,2140.70"/>
    </edge>
    <edge id=":1489194779_1" function="internal">
        <lane id=":1489194779_1_0" index="0" disallow="tram rail_urban rail rail_electric rail_fast ship container cable_car subway aircraft wheelchair scooter drone" speed="5.41" length="4.30" shape="860.25,2137.82 856.43,2139.80"/>
    </edge>
    <edge id=":1489194779_4" function="internal">
        <lane id=":1489194779_4_0" index="0" disallow="tram rail_urban rail rail_electric rail_fast ship container cable_car subway aircraft wheelchair scooter drone" speed="5.41" length="7.03" shape="856.43,2139.80 854.60,2140.08 854.75,2138.68 856.89,2135.58"/>
    </edge>
    <edge id=":1489194779_2" function="internal">
        <lane id=":1489194779_2_0" index="0" disallow="tram rail_urban rail rail_electric rail_fast ship container cable_car subway aircraft wheelchair scooter drone" speed="22.22" length="3.69" shape="854.35,2138.24 855.18,2137.53 855.72,2137.01 856.20,2136.44 856.89,2135.58"/>
    </edge>
    <edge id=":1489194779_3" function="internal">
        <lane id=":1489194779_3_0" index="0" disallow="tram rail_urban rail rail_electric rail_fast ship container cable_car subway aircraft wheelchair scooter drone" speed="3.65" length="1.44" shape="854.35,2138.24 855.78,2138.09"/>
    </edge>
    <edge id=":1489194779_5" function="internal">
        <lane id=":1489194779_5_0" index="0" disallow="tram rail_urban rail rail_electric rail_fast ship container cable_car subway aircraft wheelchair scooter drone" speed="3.65" length="3.23" shape="855.78,2138.09 856.60,2138.44 856.81,2139.31 856.40,2140.70"/>
    </edge>
    <edge id=":1489194817_0" function="internal">
        <lane id=":1489194817_0_0" index="0" disallow="tram rail_urban rail rail_electric rail_fast ship container cable_car subway aircraft wheelchair scooter drone" speed="22.22" length="8.14" shape="887.80,2125.28 885.38,2125.45 883.70,2125.53 882.08,2125.85 879.88,2126.77"/>
    </edge>
    <edge id=":1489194817_1" function="internal">
        <lane id=":1489194817_1_0" index="0" disallow="tram rail_urban rail rail_electric rail_fast ship container cable_car subway aircraft wheelchair scooter drone" speed="22.22" length="8.14" shape="886.14,2121.66 884.42,2123.37 883.26,2124.58 881.98,2125.61 879.88,2126.77"/>
    </edge>
    <edge id=":1489194888_0" function="internal">
        <lane id=":1489194888_0_0" index="0" disallow="tram rail_urban rail rail_electric rail_fast ship container cable_car subway aircraft wheelchair scooter drone" speed="9.22" length="8.28" shape="872.23,2117.46 872.90,2116.27 873.30,2114.53 873.41,2112.25 873.24,2109.41"/>
    </edge>
    <edge id=":1489194888_1" function="internal">
        <lane id=":1489194888_1_0" index="0" disallow="tram rail_urban rail rail_electric rail_fast ship container cable_car subway aircraft wheelchair scooter drone" speed="22.22" length="8.70" shape="872.23,2117.46 873.90,2115.50 874.95,2114.08 875.91,2112.59 877.31,2110.42"/>
    </edge>
    <edge id=":1494232636_0" function="internal">
        <lane id=":1494232636_0_0" index="0" disallow="tram rail_urban rail rail_electric rail_fast ship container cable_car subway aircraft wheelchair scooter drone" speed="3.65" length="4.67" shape="985.92,2114.10 987.24,2113.52 988.13,2113.61 988.59,2114.38 988.62,2115.82"/>
    </edge>
    <edge id=":cluster_12245849475_12245849476_12245849480_12245849481_#9more_0" function="internal">
        <lane id=":cluster_12245849475_12245849476_12245849480_12245849481_#9more_0_0" index="0" disallow="tram rail_urban rail rail_electric rail_fast ship container cable_car subway aircraft wheelchair scooter drone" speed="10.18" length="19.03" shape="907.88,2111.64 904.39,2110.43 900.41,2110.94 895.95,2113.18 891.00,2117.15"/>
    </edge>
    <edge id=":cluster_12245849475_12245849476_12245849480_12245849481_#9more_1" function="internal">
        <lane id=":cluster_12245849475_12245849476_12245849480_12245849481_#9more_1_0" index="0" disallow="tram rail_urban rail rail_electric rail_fast ship container cable_car subway aircraft wheelchair scooter drone" speed="27.78" length="37.59" shape="907.88,2111.64 900.89,2106.45 893.19,2099.78 885.68,2092.86 879.27,2086.92"/>
        <lane id=":cluster_12245849475_12245849476_12245849480_12245849481_#9more_1_1" index="1" disallow="tram rail_urban rail rail_electric rail_fast ship container cable_car subway aircraft wheelchair scooter drone" speed="27.78" length="37.59" shape="909.62,2108.96 902.70,2103.82 895.14,2097.25 887.76,2090.44 881.42,2084.55"/>
    </edge>
    <edge id=":cluster_12245849475_12245849476_12245849480_12245849481_#9more_3" function="internal">
        <lane id=":cluster_12245849475_12245849476_12245849480_12245849481_#9more_3_0" index="0" disallow="tram rail_urban rail rail_electric rail_fast ship container cable_car subway aircraft wheelchair scooter drone" speed="14.16" length="22.29" shape="909.62,2108.96 905.07,2102.15 901.78,2090.70 901.53,2088.53"/>
    </edge>
    <edge id=":cluster_12245849475_12245849476_12245849480_12245849481_#9more_4" function="internal">
        <lane id=":cluster_12245849475_12245849476_12245849480_12245849481_#9more_4_0" index="0" disallow="tram rail_urban rail rail_electric rail_fast ship container cable_car subway aircraft wheelchair scooter drone" speed="6.56" length="16.78" shape="909.62,2108.96 907.18,2103.25 907.62,2099.42 910.94,2097.47 913.80,2097.44"/>
    </edge>
    <edge id=":cluster_12245849475_12245849476_12245849480_12245849481_#9more_18" function="internal">
        <lane id=":cluster_12245849475_12245849476_12245849480_12245849481_#9more_18_0" index="0" disallow="tram rail_urban rail rail_electric rail_fast ship container cable_car subway aircraft wheelchair scooter drone" speed="14.16" length="19.16" shape="901.53,2088.53 900.41,2078.51 901.62,2069.52"/>
    </edge>
    <edge id=":cluster_12245849475_12245849476_12245849480_12245849481_#9more_19" function="internal">
        <lane id=":cluster_12245849475_12245849476_12245849480_12245849481_#9more_19_0" index="0" disallow="tram rail_urban rail rail_electric rail_fast ship container cable_car subway aircraft wheelchair scooter drone" speed="6.56" length="3.35" shape="913.80,2097.44 917.16,2097.41"/>
    </edge>
    <edge id=":cluster_12245849475_12245849476_12245849480_12245849481_#9more_5" function="internal">
        <lane id=":cluster_12245849475_12245849476_12245849480_12245849481_#9more_5_0" index="0" disallow="tram rail_urban rail rail_electric rail_fast ship container cable_car subway aircraft wheelchair scooter drone" speed="10.38" length="19.35" shape="917.38,2076.59 915.82,2083.08 915.56,2088.26 916.59,2092.14 918.91,2094.73"/>
    </edge>
    <edge id=":cluster_12245849475_12245849476_12245849480_12245849481_#9more_6" function="internal">
        <lane id=":cluster_12245849475_12245849476_12245849480_12245849481_#9more_6_0" index="0" disallow="tram rail_urban rail rail_electric rail_fast ship container cable_car subway aircraft wheelchair scooter drone" speed="25.00" length="48.44" shape="917.38,2076.59 913.15,2084.47 905.01,2097.39 896.46,2110.05 891.00,2117.15"/>
    </edge>
    <edge id=":cluster_12245849475_12245849476_12245849480_12245849481_#9more_7" function="internal">
        <lane id=":cluster_12245849475_12245849476_12245849480_12245849481_#9more_7_0" index="0" disallow="tram rail_urban rail rail_electric rail_fast ship container cable_car subway aircraft wheelchair scooter drone" speed="11.32" length="26.54" shape="917.38,2076.59 911.58,2082.26 900.88,2085.99 893.81,2086.63"/>
    </edge>
    <edge id=":cluster_12245849475_12245849476_12245849480_12245849481_#9more_8" function="internal">
        <lane id=":cluster_12245849475_12245849476_12245849480_12245849481_#9more_8_0" index="0" disallow="tram rail_urban rail rail_electric rail_fast ship container cable_car subway aircraft wheelchair scooter drone" speed="7.40" length="21.92" shape="917.38,2076.59 910.78,2080.73 905.96,2080.93 902.90,2077.19 902.16,2072.78"/>
    </edge>
    <edge id=":cluster_12245849475_12245849476_12245849480_12245849481_#9more_20" function="internal">
        <lane id=":cluster_12245849475_12245849476_12245849480_12245849481_#9more_20_0" index="0" disallow="tram rail_urban rail rail_electric rail_fast ship container cable_car subway aircraft wheelchair scooter drone" speed="11.32" length="12.78" shape="893.81,2086.63 889.45,2087.02 881.42,2084.55"/>
    </edge>
    <edge id=":cluster_12245849475_12245849476_12245849480_12245849481_#9more_21" function="internal">
        <lane id=":cluster_12245849475_12245849476_12245849480_12245849481_#9more_21_0" index="0" disallow="tram rail_urban rail rail_electric rail_fast ship container cable_car subway aircraft wheelchair scooter drone" speed="7.40" length="3.30" shape="902.16,2072.78 901.62,2069.52"/>
    </edge>
    <edge id=":cluster_12245849475_12245849476_12245849480_12245849481_#9more_9" function="internal">
        <lane id=":cluster_12245849475_12245849476_12245849480_12245849481_#9more_9_0" index="0" disallow="tram rail_urban rail rail_electric rail_fast ship container cable_car subway aircraft wheelchair scooter drone" speed="7.62" length="15.15" shape="890.20,2074.86 893.42,2076.48 896.40,2076.13 899.13,2073.81 901.62,2069.52"/>
    </edge>
    <edge id=":cluster_12245849475_12245849476_12245849480_12245849481_#9more_10" function="internal">
        <lane id=":cluster_12245849475_12245849476_12245849480_12245849481_#9more_10_0" index="0" disallow="tram rail_urban rail rail_electric rail_fast ship container cable_car subway aircraft wheelchair scooter drone" speed="27.78" length="35.16" shape="890.20,2074.86 918.91,2094.73"/>
        <lane id=":cluster_12245849475_12245849476_12245849480_12245849481_#9more_10_1" index="1" disallow="tram rail_urban rail rail_electric rail_fast ship container cable_car subway aircraft wheelchair scooter drone" speed="27.78" length="35.16" shape="888.05,2077.24 917.16,2097.41"/>
    </edge>
    <edge id=":cluster_12245849475_12245849476_12245849480_12245849481_#9more_12" function="internal">
        <lane id=":cluster_12245849475_12245849476_12245849480_12245849481_#9more_12_0" index="0" disallow="tram rail_urban rail rail_electric rail_fast ship container cable_car subway aircraft wheelchair scooter drone" speed="12.70" length="18.13" shape="888.05,2077.24 892.38,2084.93 894.06,2094.08"/>
    </edge>
    <edge id=":cluster_12245849475_12245849476_12245849480_12245849481_#9more_13" function="internal">
        <lane id=":cluster_12245849475_12245849476_12245849480_12245849481_#9more_13_0" index="0" disallow="tram rail_urban rail rail_electric rail_fast ship container cable_car subway aircraft wheelchair scooter drone" speed="5.71" length="11.04" shape="888.05,2077.24 889.13,2081.55 888.39,2084.21 885.81,2085.21 884.75,2085.05"/>
    </edge>
    <edge id=":cluster_12245849475_12245849476_12245849480_12245849481_#9more_22" function="internal">
        <lane id=":cluster_12245849475_12245849476_12245849480_12245849481_#9more_22_0" index="0" disallow="tram rail_urban rail rail_electric rail_fast ship container cable_car subway aircraft wheelchair scooter drone" speed="12.70" length="23.76" shape="894.06,2094.08 894.59,2096.97 894.27,2109.13 891.00,2117.15"/>
    </edge>
    <edge id=":cluster_12245849475_12245849476_12245849480_12245849481_#9more_23" function="internal">
        <lane id=":cluster_12245849475_12245849476_12245849480_12245849481_#9more_23_0" index="0" disallow="tram rail_urban rail rail_electric rail_fast ship container cable_car subway aircraft wheelchair scooter drone" speed="5.71" length="3.38" shape="884.75,2085.05 881.42,2084.55"/>
    </edge>
    <edge id=":cluster_12245849475_12245849476_12245849480_12245849481_#9more_14" function="internal">
        <lane id=":cluster_12245849475_12245849476_12245849480_12245849481_#9more_14_0" index="0" disallow="tram rail_urban rail rail_electric rail_fast ship container cable_car subway aircraft wheelchair scooter drone" speed="10.15" length="20.76" shape="880.46,2105.66 883.13,2100.35 883.82,2095.46 882.53,2090.98 879.27,2086.92"/>
    </edge>
    <edge id=":cluster_12245849475_12245849476_12245849480_12245849481_#9more_15" function="internal">
        <lane id=":cluster_12245849475_12245849476_12245849480_12245849481_#9more_15_0" index="0" disallow="tram rail_urban rail rail_electric rail_fast ship container cable_car subway aircraft wheelchair scooter drone" speed="25.00" length="41.89" shape="880.46,2105.66 884.65,2098.90 891.31,2087.74 897.84,2076.50 901.62,2069.52"/>
    </edge>
    <edge id=":cluster_12245849475_12245849476_12245849480_12245849481_#9more_16" function="internal">
        <lane id=":cluster_12245849475_12245849476_12245849480_12245849481_#9more_16_0" index="0" disallow="tram rail_urban rail rail_electric rail_fast ship container cable_car subway aircraft wheelchair scooter drone" speed="13.05" length="25.74" shape="880.46,2105.66 887.22,2100.56 897.86,2096.94 903.85,2096.22"/>
    </edge>
    <edge id=":cluster_12245849475_12245849476_12245849480_12245849481_#9more_17" function="internal">
        <lane id=":cluster_12245849475_12245849476_12245849480_12245849481_#9more_17_0" index="0" disallow="tram rail_urban rail rail_electric rail_fast ship container cable_car subway aircraft wheelchair scooter drone" speed="7.20" length="18.61" shape="880.46,2105.66 887.41,2104.58 891.48,2106.14 892.67,2110.32 891.99,2113.11"/>
    </edge>
    <edge id=":cluster_12245849475_12245849476_12245849480_12245849481_#9more_24" function="internal">
        <lane id=":cluster_12245849475_12245849476_12245849480_12245849481_#9more_24_0" index="0" disallow="tram rail_urban rail rail_electric rail_fast ship container cable_car subway aircraft wheelchair scooter drone" speed="13.05" length="13.54" shape="903.85,2096.22 908.97,2095.61 917.16,2097.41"/>
    </edge>
    <edge id=":cluster_12245849475_12245849476_12245849480_12245849481_#9more_25" function="internal">
        <lane id=":cluster_12245849475_12245849476_12245849480_12245849481_#9more_25_0" index="0" disallow="tram rail_urban rail rail_electric rail_fast ship container cable_car subway aircraft wheelchair scooter drone" speed="7.20" length="4.15" shape="891.99,2113.11 891.00,2117.15"/>
    </edge>
    <edge id=":cluster_6801361520_6801361521_0" function="internal">
        <lane id=":cluster_6801361520_6801361521_0_0" index="0" allow="pedestrian delivery bicycle" speed="4.04" length="4.27" shape="927.49,2149.20 926.53,2150.11 925.74,2150.31 925.13,2149.78 924.69,2148.52"/>
    </edge>

    <edge id="-135617580#6" from="1489194779" to="10264294471" priority="10" type="highway.tertiary" shape="850.62,2143.46 778.89,2203.65 752.79,2226.07">
        <lane id="-135617580#6_0" index="0" disallow="tram rail_urban rail rail_electric rail_fast ship container cable_car subway aircraft wheelchair scooter drone" speed="22.22" length="134.23" shape="856.40,2140.70 779.93,2204.87 753.83,2227.28"/>
    </edge>
    <edge id="-136182587#0" from="1494232636" to="1484934777" priority="3" type="highway.residential">
        <lane id="-136182587#0_0" index="0" disallow="tram rail_urban rail rail_electric rail_fast ship container cable_car subway aircraft wheelchair scooter drone" speed="13.89" length="15.84" shape="988.62,2115.82 980.09,2129.17"/>
    </edge>
    <edge id="1133447941" from="cluster_6801361520_6801361521" to="10567689612" priority="1" type="highway.service" spreadType="center" shape="925.39,2151.75 920.59,2129.56">
        <lane id="1133447941_0" index="0" allow="pedestrian delivery bicycle" speed="5.56" length="14.84" shape="924.69,2148.52 921.56,2134.02"/>
    </edge>
    <edge id="1133447942" from="10567689613" to="cluster_6801361520_6801361521" priority="1" type="highway.service" spreadType="center" shape="937.77,2136.73 925.39,2151.75">
        <lane id="1133447942_0" index="0" allow="pedestrian delivery bicycle" speed="5.56" length="12.51" shape="935.44,2139.55 927.49,2149.20"/>
    </edge>
    <edge id="1323361970#0" from="12245849474" to="cluster_12245849475_12245849476_12245849480_12245849481_#9more" priority="1" type="highway.footway" spreadType="center" shape="897.34,2117.74 906.09,2108.18">
        <lane id="1323361970#0_0" index="0" allow="pedestrian" speed="2.78" length="0.20" width="2.00" shape="897.98,2117.04 898.11,2116.90"/>
    </edge>
    <edge id="1323361971#0" from="cluster_12245849475_12245849476_12245849480_12245849481_#9more" to="12245849477" priority="1" type="highway.footway" spreadType="center" shape="915.78,2094.60 922.52,2085.47">
        <lane id="1323361971#0_0" index="0" allow="pedestrian" speed="2.78" length="0.20" width="2.00" shape="922.18,2085.92 922.30,2085.76"/>
    </edge>
    <edge id="1323361971#1" from="12245849477" to="12245849478" priority="1" type="highway.footway" spreadType="center">
        <lane id="1323361971#1_0" index="0" allow="pedestrian" speed="2.78" length="2.31" width="2.00" shape="924.61,2086.51 926.68,2087.53"/>
    </edge>
    <edge id="1323361972" from="12245849477" to="12245849479" priority="1" type="highway.footway" spreadType="center">
        <lane id="1323361972_0" index="0" allow="pedestrian" speed="2.78" length="2.52" width="2.00" shape="920.81,2083.82 918.99,2082.07"/>
    </edge>
    <edge id="1323361973#0" from="12245849479" to="cluster_12245849475_12245849476_12245849480_12245849481_#9more" priority="1" type="highway.footway" spreadType="center" shape="918.92,2082.00 916.23,2080.31">
        <lane id="1323361973#0_0" index="0" allow="pedestrian" speed="2.78" length="0.20" width="2.00" shape="921.24,2083.46 921.07,2083.35"/>
    </edge>
    <edge id="1323361974" from="cluster_12245849475_12245849476_12245849480_12245849481_#9more" to="12245849482" priority="1" type="highway.footway" spreadType="center" shape="900.51,2071.99 895.79,2069.11">
        <lane id="1323361974_0" index="0" allow="pedestrian" speed="2.78" length="0.20" width="2.00" shape="896.88,2069.77 896.71,2069.67"/>
    </edge>
    <edge id="1323361975" from="12245849482" to="12245849483" priority="1" type="highway.footway" spreadType="center">
        <lane id="1323361975_0" index="0" allow="pedestrian" speed="2.78" length="5.35" width="2.00" shape="895.22,2067.33 893.59,2062.23"/>