<?xml version="1.0" encoding="UTF-8"?>
<routes>
  <!-- Stochastic demand: rate ~ N(mean, sd) resampled every 120s (seed=11). -->
  <vType id="car" accel="2.6" decel="4.5" length="5.0" minGap="2.5" maxSpeed="13.9" departLane="random" lcImpatience="0.8"/>
  <flow id="awolowo_a_0" type="car" from="610011092#2" to="135617573#1" begin="0" end="120" vehsPerHour="1155" departSpeed="max"/>
  <flow id="awolowo_b_1" type="car" from="134404792#3" to="135195291#2" begin="0" end="120" vehsPerHour="1475" departSpeed="max"/>
  <flow id="allen_a_2" type="car" from="136338240#2" to="134404770#4" begin="0" end="120" vehsPerHour="379" departSpeed="max"/>
  <flow id="allen_b_3" type="car" from="135617577#1" to="134404795#1" begin="0" end="120" vehsPerHour="228" departSpeed="max"/>
  <flow id="awolowo_a_4" type="car" from="610011092#2" to="135617573#1" begin="120" end="240" vehsPerHour="1134" departSpeed="max"/>
  <flow id="awolowo_b_5" type="car" from="134404792#3" to="135195291#2" begin="120" end="240" vehsPerHour="1386" departSpeed="max"/>
  <flow id="allen_a_6" type="car" from="136338240#2" to="134404770#4" begin="120" end="240" vehsPerHour="327" departSpeed="max"/>
  <flow id="allen_b_7" type="car" from="135617577#1" to="134404795#1" begin="120" end="240" vehsPerHour="389" departSpeed="max"/>
  <flow id="awolowo_a_8" type="car" from="610011092#2" to="135617573#1" begin="240" end="360" vehsPerHour="1156" departSpeed="max"/>
  <flow id="awolowo_b_9" type="car" from="134404792#3" to="135195291#2" begin="240" end="360" vehsPerHour="1141" departSpeed="max"/>
  <flow id="allen_a_10" type="car" from="136338240#2" to="134404770#4" begin="240" end="360" vehsPerHour="350" departSpeed="max"/>
  <flow id="allen_b_11" type="car" from="135617577#1" to="134404795#1" begin="240" end="360" vehsPerHour="327" departSpeed="max"/>
  <flow id="awolowo_a_12" type="car" from="610011092#2" to="135617573#1" begin="360" end="480" vehsPerHour="1706" departSpeed="max"/>
  <flow id="awolowo_b_13" type="car" from="134404792#3" to="135195291#2" begin="360" end="480" vehsPerHour="1596" departSpeed="max"/>
  <flow id="allen_a_14" type="car" from="136338240#2" to="134404770#4" begin="360" end="480" vehsPerHour="269" departSpeed="max"/>
  <flow id="allen_b_15" type="car" from="135617577#1" to="134404795#1" begin="360" end="480" vehsPerHour="252" departSpeed="max"/>
  <flow id="awolowo_a_16" type="car" from="610011092#2" to="135617573#1" begin="480" end="600" vehsPerHour="1914" departSpeed="max"/>
  <flow id="awolowo_b_17" type="car" from="134404792#3" to="135195291#2" begin="480" end="600" vehsPerHour="1342" departSpeed="max"/>
  <flow id="allen_a_18" type="car" from="136338240#2" to="134404770#4" begin="480" end="600" vehsPerHour="201" departSpeed="max"/>
  <flow id="allen_b_19" type="car" from="135617577#1" to="134404795#1" begin="480" end="600" vehsPerHour="166" departSpeed="max"/>
  <flow id="awolowo_a_20" type="car" from="610011092#2" to="135617573#1" begin="600" end="720" vehsPerHour="1419" departSpeed="max"/>
  <flow id="awolowo_b_21" type="car" from="134404792#3" to="135195291#2" begin="600" end="720" vehsPerHour="1429" departSpeed="max"/>
  <flow id="allen_a_22" type="car" from="136338240#2" to="134404770#4" begin="600" end="720" vehsPerHour="245" departSpeed="max"/>
  <flow id="allen_b_23" type="car" from="135617577#1" to="134404795#1" begin="600" end="720" vehsPerHour="273" departSpeed="max"/>
  <flow id="awolowo_a_24" type="car" from="610011092#2" to="135617573#1" begin="720" end="840" vehsPerHour="1454" departSpeed="max"/>
  <flow id="awolowo_b_25" type="car" from="134404792#3" to="135195291#2" begin="720" end="840" vehsPerHour="1538" departSpeed="max"/>
  <flow id="allen_a_26" type="car" from="136338240#2" to="134404770#4" begin="720" end="840" vehsPerHour="389" departSpeed="max"/>
  <flow id="allen_b_27" type="car" from="135617577#1" to="134404795#1" begin="720" end="840" vehsPerHour="300" departSpeed="max"/>
  <flow id="awolowo_a_28" type="car" from="610011092#2" to="135617573#1" begin="840" end="960" vehsPerHour="1042" departSpeed="max"/>
  <flow id="awolowo_b_29" type="car" from="134404792#3" to="135195291#2" begin="840" end="960" vehsPerHour="1540" departSpeed="max"/>
  <flow id="allen_a_30" type="car" from="136338240#2" to="134404770#4" begin="840" end="960" vehsPerHour="138" departSpeed="max"/>
  <flow id="allen_b_31" type="car" from="135617577#1" to="134404795#1" begin="840" end="960" vehsPerHour="262" departSpeed="max"/>
  <flow id="awolowo_a_32" type="car" from="610011092#2" to="135617573#1" begin="960" end="1080" vehsPerHour="1105" departSpeed="max"/>
  <flow id="awolowo_b_33" type="car" from="134404792#3" to="135195291#2" begin="960" end="1080" vehsPerHour="1400" departSpeed="max"/>
  <flow id="allen_a_34" type="car" from="136338240#2" to="134404770#4" begin="960" end="1080" vehsPerHour="202" departSpeed="max"/>
  <flow id="allen_b_35" type="car" from="135617577#1" to="134404795#1" begin="960" end="1080" vehsPerHour="301" departSpeed="max"/>
  <flow id="awolowo_a_36" type="car" from="610011092#2" to="135617573#1" begin="1080" end="1200" vehsPerHour="2060" departSpeed="max"/>
  <flow id="awolowo_b_37" type="car" from="134404792#3" to="135195291#2" begin="1080" end="1200" vehsPerHour="1390" departSpeed="max"/>
  <flow id="allen_a_38" type="car" from="136338240#2" to="134404770#4" begin="1080" end="1200" vehsPerHour="364" departSpeed="max"/>
  <flow id="allen_b_39" type="car" from="135617577#1" to="134404795#1" begin="1080" end="1200" vehsPerHour="147" departSpeed="max"/>
  <flow id="awolowo_a_40" type="car" from="610011092#2" to="135617573#1" begin="1200" end="1320" vehsPerHour="1342" departSpeed="max"/>
  <flow id="awolowo_b_41" type="car" from="134404792#3" to="135195291#2" begin="1200" end="1320" vehsPerHour="1532" departSpeed="max"/>
  <flow id="allen_a_42" type="car" from="136338240#2" to="134404770#4" begin="1200" end="1320" vehsPerHour="270" departSpeed="max"/>
  <flow id="allen_b_43" type="car" from="135617577#1" to="134404795#1" begin="1200" end="1320" vehsPerHour="317" departSpeed="max"/>
  <flow id="awolowo_a_44" type="car" from="610011092#2" to="135617573#1" begin="1320" end="1440" vehsPerHour="1420" departSpeed="max"/>
  <flow id="awolowo_b_45" type="car" from="134404792#3" to="135195291#2" begin="1320" end="1440" vehsPerHour="1198" departSpeed="max"/>
  <flow id="allen_a_46" type="car" from="136338240#2" to="134404770#4" begin="1320" end="1440" vehsPerHour="336" departSpeed="max"/>
  <flow id="allen_b_47" type="car" from="135617577#1" to="134404795#1" begin="1320" end="1440" vehsPerHour="198" departSpeed="max"/>
  <flow id="awolowo_a_48" type="car" from="610011092#2" to="135617573#1" begin="1440" end="1560" vehsPerHour="1774" departSpeed="max"/>
  <flow id="awolowo_b_49" type="car" from="134404792#3" to="135195291#2" begin="1440" end="1560" vehsPerHour="1298" departSpeed="max"/>
  <flow id="allen_a_50" type="car" from="136338240#2" to="134404770#4" begin="1440" end="1560" vehsPerHour="348" departSpeed="max"/>
  <flow id="allen_b_51" type="car" from="135617577#1" to="134404795#1" begin="1440" end="1560" vehsPerHour="280" departSpeed="max"/>
  <flow id="awolowo_a_52" type="car" from="610011092#2" to="135617573#1" begin="1560" end="1680" vehsPerHour="1590" departSpeed="max"/>
  <flow id="awolowo_b_53" type="car" from="134404792#3" to="135195291#2" begin="1560" end="1680" vehsPerHour="1279" departSpeed="max"/>
  <flow id="allen_a_54" type="car" from="136338240#2" to="134404770#4" begin="1560" end="1680" vehsPerHour="379" departSpeed="max"/>
  <flow id="allen_b_55" type="car" from="135617577#1" to="134404795#1" begin="1560" end="1680" vehsPerHour="267" departSpeed="max"/>
  <flow id="awolowo_a_56" type="car" from="610011092#2" to="135617573#1" begin="1680" end="1800" vehsPerHour="1652" departSpeed="max"/>
  <flow id="awolowo_b_57" type="car" from="134404792#3" to="135195291#2" begin="1680" end="1800" vehsPerHour="1524" departSpeed="max"/>
  <flow id="allen_a_58" type="car" from="136338240#2" to="134404770#4" begin="1680" end="1800" vehsPerHour="294" departSpeed="max"/>
  <flow id="allen_b_59" type="car" from="135617577#1" to="134404795#1" begin="1680" end="1800" vehsPerHour="201" departSpeed="max"/>
  <flow id="awolowo_a_60" type="car" from="610011092#2" to="135617573#1" begin="1800" end="1920" vehsPerHour="1553" departSpeed="max"/>
  <flow id="awolowo_b_61" type="car" from="134404792#3" to="135195291#2" begin="1800" end="1920" vehsPerHour="1493" departSpeed="max"/>
  <flow id="allen_a_62" type="car" from="136338240#2" to="134404770#4" begin="1800" end="1920" vehsPerHour="444" departSpeed="max"/>
  <flow id="allen_b_63" type="car" from="135617577#1" to="134404795#1" begin="1800" end="1920" vehsPerHour="242" departSpeed="max"/>
  <flow id="awolowo_a_64" type="car" from="610011092#2" to="135617573#1" begin="1920" end="2040" vehsPerHour="1510" departSpeed="max"/>
  <flow id="awolowo_b_65" type="car" from="134404792#3" to="135195291#2" begin="1920" end="2040" vehsPerHour="1501" departSpeed="max"/>
  <flow id="allen_a_66" type="car" from="136338240#2" to="134404770#4" begin="1920" end="2040" vehsPerHour="308" departSpeed="max"/>
  <flow id="allen_b_67" type="car" from="135617577#1" to="134404795#1" begin="1920" end="2040" vehsPerHour="300" departSpeed="max"/>
  <flow id="awolowo_a_68" type="car" from="610011092#2" to="135617573#1" begin="2040" end="2160" vehsPerHour="1436" departSpeed="max"/>
  <flow id="awolowo_b_69" type="car" from="134404792#3" to="135195291#2" begin="2040" end="2160" vehsPerHour="1280" departSpeed="max"/>
  <flow id="allen_a_70" type="car" from="136338240#2" to="134404770#4" begin="2040" end="2160" vehsPerHour="178" departSpeed="max"/>
  <flow id="allen_b_71" type="car" from="135617577#1" to="134404795#1" begin="2040" end="2160" vehsPerHour="240" departSpeed="max"/>
  <flow id="awolowo_a_72" type="car" from="610011092#2" to="135617573#1" begin="2160" end="2280" vehsPerHour="1518" departSpeed="max"/>
  <flow id="awolowo_b_73" type="car" from="134404792#3" to="135195291#2" begin="2160" end="2280" vehsPerHour="1702" departSpeed="max"/>
  <flow id="allen_a_74" type="car" from="136338240#2" to="134404770#4" begin="2160" end="2280" vehsPerHour="377" departSpeed="max"/>
  <flow id="allen_b_75" type="car" from="135617577#1" to="134404795#1" begin="2160" end="2280" vehsPerHour="385" departSpeed="max"/>
  <flow id="awolowo_a_76" type="car" from="610011092#2" to="135617573#1" begin="2280" end="2400" vehsPerHour="1555" departSpeed="max"/>
  <flow id="awolowo_b_77" type="car" from="134404792#3" to="135195291#2" begin="2280" end="2400" vehsPerHour="1539" departSpeed="max"/>
  <flow id="allen_a_78" type="car" from="136338240#2" to="134404770#4" begin="2280" end="2400" vehsPerHour="298" departSpeed="max"/>
  <flow id="allen_b_79" type="car" from="135617577#1" to="134404795#1" begin="2280" end="2400" vehsPerHour="357" departSpeed="max"/>
  <flow id="awolowo_a_80" type="car" from="610011092#2" to="135617573#1" begin="2400" end="2520" vehsPerHour="1754" departSpeed="max"/>
  <flow id="awolowo_b_81" type="car" from="134404792#3" to="135195291#2" begin="2400" end="2520" vehsPerHour="1334" departSpeed="max"/>
  <flow id="allen_a_82" type="car" from="136338240#2" to="134404770#4" begin="2400" end="2520" vehsPerHour="210" departSpeed="max"/>
  <flow id="allen_b_83" type="car" from="135617577#1" to="134404795#1" begin="2400" end="2520" vehsPerHour="476" departSpeed="max"/>
  <flow id="awolowo_a_84" type="car" from="610011092#2" to="135617573#1" begin="2520" end="2640" vehsPerHour="1448" departSpeed="max"/>
  <flow id="awolowo_b_85" type="car" from="134404792#3" to="135195291#2" begin="2520" end="2640" vehsPerHour="1594" departSpeed="max"/>
  <flow id="allen_a_86" type="car" from="136338240#2" to="134404770#4" begin="2520" end="2640" vehsPerHour="367" departSpeed="max"/>
  <flow id="allen_b_87" type="car" from="135617577#1" to="134404795#1" begin="2520" end="2640" vehsPerHour="166" departSpeed="max"/>
  <flow id="awolowo_a_88" type="car" from="610011092#2" to="135617573#1" begin="2640" end="2760" vehsPerHour="1886" departSpeed="max"/>
  <flow id="awolowo_b_89" type="car" from="134404792#3" to="135195291#2" begin="2640" end="2760" vehsPerHour="1755" departSpeed="max"/>
  <flow id="allen_a_90" type="car" from="136338240#2" to="134404770#4" begin="2640" end="2760" vehsPerHour="297" departSpeed="max"/>
  <flow id="allen_b_91" type="car" from="135617577#1" to="134404795#1" begin="2640" end="2760" vehsPerHour="355" departSpeed="max"/>
  <flow id="awolowo_a_92" type="car" from="610011092#2" to="135617573#1" begin="2760" end="2880" vehsPerHour="1425" departSpeed="max"/>
  <flow id="awolowo_b_93" type="car" from="134404792#3" to="135195291#2" begin="2760" end="2880" vehsPerHour="1223" departSpeed="max"/>
  <flow id="allen_a_94" type="car" from="136338240#2" to="134404770#4" begin="2760" end="2880" vehsPerHour="268" departSpeed="max"/>
  <flow id="allen_b_95" type="car" from="135617577#1" to="134404795#1" begin="2760" end="2880" vehsPerHour="317" departSpeed="max"/>
  <flow id="awolowo_a_96" type="car" from="610011092#2" to="135617573#1" begin="2880" end="3000" vehsPerHour="1623" departSpeed="max"/>
  <flow id="awolowo_b_97" type="car" from="134404792#3" to="135195291#2" begin="2880" end="3000" vehsPerHour="1541" departSpeed="max"/>
  <flow id="allen_a_98" type="car" from="136338240#2" to="134404770#4" begin="2880" end="3000" vehsPerHour="285" departSpeed="max"/>
  <flow id="allen_b_99" type="car" from="135617577#1" to="134404795#1" begin="2880" end="3000" vehsPerHour="415" departSpeed="max"/>
  <flow id="awolowo_a_100" type="car" from="610011092#2" to="135617573#1" begin="3000" end="3120" vehsPerHour="1247" departSpeed="max"/>
  <flow id="awolowo_b_101" type="car" from="134404792#3" to="135195291#2" begin="3000" end="3120" vehsPerHour="1558" departSpeed="max"/>
  <flow id="allen_a_102" type="car" from="136338240#2" to="134404770#4" begin="3000" end="3120" vehsPerHour="391" departSpeed="max"/>
  <flow id="allen_b_103" type="car" from="135617577#1" to="134404795#1" begin="3000" end="3120" vehsPerHour="250" departSpeed="max"/>
  <flow id="awolowo_a_104" type="car" from="610011092#2" to="135617573#1" begin="3120" end="3240" vehsPerHour="1041" departSpeed="max"/>
  <flow id="awolowo_b_105" type="car" from="134404792#3" to="135195291#2" begin="3120" end="3240" vehsPerHour="1218" departSpeed="max"/>
  <flow id="allen_a_106" type="car" from="136338240#2" to="134404770#4" begin="3120" end="3240" vehsPerHour="303" departSpeed="max"/>
  <flow id="allen_b_107" type="car" from="135617577#1" to="134404795#1" begin="3120" end="3240" vehsPerHour="332" departSpeed="max"/>
  <flow id="awolowo_a_108" type="car" from="610011092#2" to="135617573#1" begin="3240" end="3360" vehsPerHour="1709" departSpeed="max"/>
  <flow id="awolowo_b_109" type="car" from="134404792#3" to="135195291#2" begin="3240" end="3360" vehsPerHour="1199" departSpeed="max"/>
  <flow id="allen_a_110" type="car" from="136338240#2" to="134404770#4" begin="3240" end="3360" vehsPerHour="280" departSpeed="max"/>
  <flow id="allen_b_111" type="car" from="135617577#1" to="134404795#1" begin="3240" end="3360" vehsPerHour="344" departSpeed="max"/>
  <flow id="awolowo_a_112" type="car" from="610011092#2" to="135617573#1" begin="3360" end="3480" vehsPerHour="1368" departSpeed="max"/>
  <flow id="awolowo_b_113" type="car" from="134404792#3" to="135195291#2" begin="3360" end="3480" vehsPerHour="926" departSpeed="max"/>
  <flow id="allen_a_114" type="car" from="136338240#2" to="134404770#4" begin="3360" end="3480" vehsPerHour="360" departSpeed="max"/>
  <flow id="allen_b_115" type="car" from="135617577#1" to="134404795#1" begin="3360" end="3480" vehsPerHour="511" departSpeed="max"/>
  <flow id="awolowo_a_116" type="car" from="610011092#2" to="135617573#1" begin="3480" end="3600" vehsPerHour="1600" departSpeed="max"/>
  <flow id="awolowo_b_117" type="car" from="134404792#3" to="135195291#2" begin="3480" end="3600" vehsPerHour="1216" departSpeed="max"/>
  <flow id="allen_a_118" type="car" from="136338240#2" to="134404770#4" begin="3480" end="3600" vehsPerHour="238" departSpeed="max"/>
  <flow id="allen_b_119" type="car" from="135617577#1" to="134404795#1" begin="3480" end="3600" vehsPerHour="302" departSpeed="max"/>
</routes>
