<?xml version="1.0" encoding="UTF-8"?>
<routes>
  <!-- UNSEEN GENERALIZATION TEST: 1000 / 500 - a demand the agent never trained on.
       Used to test a model trained on OTHER demands, with NO retraining. -->
  <vType id="car" accel="2.6" decel="4.5" length="5.0" minGap="2.5"
         maxSpeed="13.9" departLane="random" lcImpatience="0.8"/>

  <flow id="awolowo_a" type="car" begin="0" end="3600" from="610011092#2" to="135617573#1" vehsPerHour="1000" departSpeed="max"/>
  <flow id="awolowo_b" type="car" begin="0" end="3600" from="134404792#3" to="135195291#2" vehsPerHour="1000" departSpeed="max"/>
  <flow id="allen_a" type="car" begin="0" end="3600" from="136338240#2" to="134404770#4" vehsPerHour="500" departSpeed="max"/>
  <flow id="allen_b" type="car" begin="0" end="3600" from="135617577#1" to="134404795#1" vehsPerHour="500" departSpeed="max"/>

</routes>
