<?xml version="1.0" encoding="UTF-8"?>

<!-- generated on 2026-06-04 21:22:40 by Eclipse SUMO netconvert Version 1.24.0
<netconvertConfiguration xmlns:xsi="http://www.w3.org/2001/XMLSchema-instance" xsi:noNamespaceSchemaLocation="http://sumo.dlr.de/xsd/netconvertConfiguration.xsd">

    <input>
        <sumo-net-file value="lagos_single.net.xml"/>
        <edge-files value="patch_lanes.edg.xml"/>
    </input>

    <output>
        <output-file value="lagos_single.net.xml"/>
    </output>

    <processing>
        <geometry.min-radius.fix.railways value="false"/>
        <geometry.avoid-overlap value="false"/>
        <geometry.max-grade.fix value="false"/>
        <offset.disable-normalization value="true"/>
        <lefthand value="0"/>
    </processing>

    <tls_building>
        <tls.join value="true"/>
        <tls.guess-signals value="true"/>
    </tls_building>

    <junctions>
        <no-turnarounds value="true"/>
        <junctions.corner-detail value="5"/>
        <junctions.limit-turn-speed value="5.50"/>
        <rectangular-lane-cut value="0"/>
    </junctions>

    <pedestrian>
        <walkingareas value="0"/>
    </pedestrian>

</netconvertConfiguration>
-->

<net version="1.20" junctionCornerDetail="5" limitTurnSpeed="5.50" avoidOverlap="0" xmlns:xsi="http://www.w3.org/2001/XMLSchema-instance" xsi:noNamespaceSchemaLocation="http://sumo.dlr.de/xsd/net_file.xsd">

    <location netOffset="-538381.51,-729133.17" convBoundary="0.00,0.00,837.67,1370.29" origBoundary="3.341025,6.580916,3.379317,6.622337" projParameter="+proj=utm +zone=31 +ellps=WGS84 +datum=WGS84 +units=m +no_defs"/>

    <type id="highway.footway" priority="1" numLanes="1" speed="2.78" allow="pedestrian" oneway="1" width="2.00"/>
    <type id="highway.primary" priority="12" numLanes="2" speed="27.78" disallow="tram rail_urban rail rail_electric rail_fast ship container cable_car subway aircraft wheelchair scooter drone" oneway="0"/>
    <type id="highway.residential" priority="3" numLanes="1" speed="13.89" disallow="tram rail_urban rail rail_electric rail_fast ship container cable_car subway aircraft wheelchair scooter drone" oneway="0"/>
    <type id="highway.secondary" priority="11" numLanes="1" speed="27.78" disallow="tram rail_urban rail rail_electric rail_fast ship container cable_car subway aircraft wheelchair scooter drone" oneway="0"/>
    <type id="highway.secondary_link" priority="6" numLanes="1" speed="22.22" disallow="tram rail_urban rail rail_electric rail_fast ship container cable_car subway aircraft wheelchair scooter drone" oneway="0"/>
    <type id="highway.service" priority="1" numLanes="1" speed="5.56" allow="pedestrian delivery bicycle" oneway="0"/>
    <type id="highway.tertiary" priority="10" numLanes="1" speed="22.22" disallow="tram rail_urban rail rail_electric rail_fast ship container cable_car subway aircraft wheelchair scooter drone" oneway="0"/>

    <edge id=":10264294471_0" function="internal">
        <lane id=":10264294471_0_0" index="0" allow="pedestrian delivery bicycle" speed="5.03" length="5.01" shape="71.23,1340.07 70.20,1339.16 69.13,1338.79 68.02,1338.98 66.86,1339.72"/>
    </edge>
    <edge id=":10264294471_1" function="internal">
        <lane id=":10264294471_1_0" index="0" allow="pedestrian delivery bicycle" speed="6.88" length="10.16" shape="71.23,1340.07 69.74,1337.71 69.36,1335.43 70.08,1333.26 71.90,1331.17"/>
    </edge>
    <edge id=":10264294471_2" function="internal">
        <lane id=":10264294471_2_0" index="0" allow="pedestrian delivery bicycle" speed="5.06" length="5.03" shape="73.99,1333.59 73.09,1334.63 72.74,1335.70 72.93,1336.83 73.67,1338.00"/>
    </edge>
    <edge id=":10264294471_3" function="internal">
        <lane id=":10264294471_3_0" index="0" disallow="tram rail_urban rail rail_electric rail_fast ship container cable_car subway aircraft wheelchair scooter drone" speed="22.22" length="9.40" shape="73.99,1333.59 66.86,1339.72"/>
    </edge>
    <edge id=":10264294471_4" function="internal">
        <lane id=":10264294471_4_0" index="0" disallow="tram rail_urban rail rail_electric rail_fast ship container cable_car subway aircraft wheelchair scooter drone" speed="22.22" length="9.40" shape="64.78,1337.29 71.90,1331.17"/>
    </edge>
    <edge id=":10264294471_5" function="internal">
        <lane id=":10264294471_5_0" index="0" allow="pedestrian delivery bicycle" speed="6.86" length="3.27" shape="64.78,1337.29 67.13,1335.79 67.60,1335.71"/>
    </edge>
    <edge id=":10264294471_6" function="internal">
        <lane id=":10264294471_6_0" index="0" allow="pedestrian delivery bicycle" speed="6.86" length="6.93" shape="67.60,1335.71 69.40,1335.41 71.58,1336.14 73.67,1338.00"/>
    </edge>
    <edge id=":10567669407_0" function="internal">
        <lane id=":10567669407_0_0" index="0" allow="pedestrian delivery bicycle" speed="7.81" length="6.81" shape="223.87,1153.15 225.90,1152.61 227.52,1151.87 228.73,1150.93 229.54,1149.78"/>
    </edge>
    <edge id=":10567669407_1" function="internal">
        <lane id=":10567669407_1_0" index="0" disallow="tram rail_urban rail rail_electric rail_fast ship container cable_car subway aircraft wheelchair scooter drone" speed="27.78" length="7.32" shape="226.50,1156.45 229.54,1149.78"/>
    </edge>
    <edge id=":10567689612_0" function="internal">
        <lane id=":10567689612_0_0" index="0" allow="pedestrian delivery bicycle" speed="7.40" length="6.41" shape="238.16,1243.38 237.60,1241.37 236.89,1239.81 236.04,1238.69 235.03,1238.02"/>
    </edge>
    <edge id=":10567689612_1" function="internal">
        <lane id=":10567689612_1_0" index="0" disallow="tram rail_urban rail rail_electric rail_fast ship container cable_car subway aircraft wheelchair scooter drone" speed="22.22" length="6.90" shape="241.40,1240.67 235.03,1238.02"/>
    </edge>
    <edge id=":10567689613_0" function="internal">
        <lane id=":10567689613_0_0" index="0" allow="pedestrian delivery bicycle" speed="5.74" length="5.51" shape="256.86,1247.26 255.63,1246.92 254.42,1247.08 253.23,1247.74 252.05,1248.90"/>
    </edge>
    <edge id=":10567689613_1" function="internal">
        <lane id=":10567689613_1_0" index="0" disallow="tram rail_urban rail rail_electric rail_fast ship container cable_car subway aircraft wheelchair scooter drone" speed="22.22" length="6.40" shape="256.86,1247.26 251.00,1244.67"/>
    </edge>
    <edge id=":10567689614_0" function="internal">
        <lane id=":10567689614_0_0" index="0" disallow="tram rail_urban rail rail_electric rail_fast ship container cable_car subway aircraft wheelchair scooter drone" speed="25.00" length="71.72" shape="339.95,1288.64 275.92,1256.32"/>
    </edge>
    <edge id=":10567689614_1" function="internal">
        <lane id=":10567689614_1_0" index="0" disallow="tram rail_urban rail rail_electric rail_fast ship container cable_car subway aircraft wheelchair scooter drone" speed="27.78" length="70.70" shape="339.95,1288.64 278.43,1253.64"/>
        <lane id=":10567689614_1_1" index="1" disallow="tram rail_urban rail rail_electric rail_fast ship container cable_car subway aircraft wheelchair scooter drone" speed="27.78" length="70.70" shape="341.40,1285.79 280.03,1250.87"/>
    </edge>
    <edge id=":10698677325_0" function="internal">
        <lane id=":10698677325_0_0" index="0" allow="pedestrian delivery bicycle" speed="4.93" length="5.14" shape="90.01,1103.72 88.83,1102.92 87.71,1102.72 86.65,1103.14 85.65,1104.16"/>
    </edge>
    <edge id=":10698677325_1" function="internal">
        <lane id=":10698677325_1_0" index="0" disallow="tram rail_urban rail rail_electric rail_fast ship container cable_car subway aircraft wheelchair scooter drone" speed="27.78" length="9.44" shape="90.01,1103.72 83.05,1097.36"/>
        <lane id=":10698677325_1_1" index="1" disallow="tram rail_urban rail rail_electric rail_fast ship container cable_car subway aircraft wheelchair scooter drone" speed="27.78" length="9.44" shape="92.17,1101.36 85.20,1094.99"/>
    </edge>
    <edge id=":10698677325_3" function="internal">
        <lane id=":10698677325_3_0" index="0" allow="pedestrian delivery bicycle" speed="5.43" length="5.47" shape="83.07,1102.27 83.87,1100.86 84.13,1099.57 83.86,1098.40 83.05,1097.36"/>
    </edge>
    <edge id=":12245849471_0" function="internal">
        <lane id=":12245849471_0_0" index="0" disallow="tram rail_urban rail rail_electric rail_fast ship container cable_car subway aircraft wheelchair scooter drone" speed="27.78" length="5.95" shape="361.65,1299.63 356.34,1296.95"/>
        <lane id=":12245849471_0_1" index="1" disallow="tram rail_urban rail rail_electric rail_fast ship container cable_car subway aircraft wheelchair scooter drone" speed="27.78" length="5.95" shape="363.09,1296.78 357.79,1294.09"/>
    </edge>
    <edge id=":12245849472_0" function="internal">
        <lane id=":12245849472_0_0" index="0" disallow="tram rail_urban rail rail_electric rail_fast ship container cable_car subway aircraft wheelchair scooter drone" speed="27.78" length="5.29" shape="363.82,1285.65 368.43,1288.24"/>
        <lane id=":12245849472_0_1" index="1" disallow="tram rail_urban rail rail_electric rail_fast ship container cable_car subway aircraft wheelchair scooter drone" speed="27.78" length="5.29" shape="362.26,1288.44 366.87,1291.03"/>
    </edge>
    <edge id=":12245849483_0" function="internal">
        <lane id=":12245849483_0_0" index="0" disallow="tram rail_urban rail rail_electric rail_fast ship container cable_car subway aircraft wheelchair scooter drone" speed="22.22" length="5.00" shape="206.75,1169.25 208.20,1169.06 209.17,1168.74 210.10,1168.29 211.46,1167.69"/>
    </edge>
    <edge id=":12245849487_0" function="internal">
        <lane id=":12245849487_0_0" index="0" disallow="tram rail_urban rail rail_electric rail_fast ship container cable_car subway aircraft wheelchair scooter drone" speed="22.22" length="5.31" shape="189.04,1210.60 188.87,1209.03 188.75,1207.95 188.68,1206.88 188.65,1205.30"/>
    </edge>
    <edge id=":12245849492_0" function="internal">
        <lane id=":12245849492_0_0" index="0" disallow="tram rail_urban rail rail_electric rail_fast ship container cable_car subway aircraft wheelchair scooter drone" speed="22.22" length="5.86" shape="221.55,1232.70 215.73,1233.35"/>
    </edge>
    <edge id=":12245849494_0" function="internal">
        <lane id=":12245849494_0_0" index="0" disallow="tram rail_urban rail rail_electric rail_fast ship container cable_car subway aircraft wheelchair scooter drone" speed="22.22" length="5.03" shape="251.19,1191.73 252.91,1196.46"/>
    </edge>
    <edge id=":1477869248_0" function="internal">
        <lane id=":1477869248_0_0" index="0" disallow="tram rail_urban rail rail_electric rail_fast ship container cable_car subway aircraft wheelchair scooter drone" speed="9.33" length="7.72" shape="218.45,1164.94 220.64,1164.20 222.22,1163.63 223.45,1162.69 224.56,1160.81"/>
    </edge>
    <edge id=":1477869248_1" function="internal">
        <lane id=":1477869248_1_0" index="0" disallow="tram rail_urban rail rail_electric rail_fast ship container cable_car subway aircraft wheelchair scooter drone" speed="27.78" length="7.85" shape="221.35,1167.97 224.56,1160.81"/>
    </edge>
    <edge id=":1477869288_0" function="internal">
        <lane id=":1477869288_0_0" index="0" disallow="tram rail_urban rail rail_electric rail_fast ship container cable_car subway aircraft wheelchair scooter drone" speed="22.73" length="13.90" shape="245.17,1154.84 244.58,1159.12 244.76,1162.36 245.39,1165.27 246.17,1168.53"/>
    </edge>
    <edge id=":1477869288_1" function="internal">
        <lane id=":1477869288_1_0" index="0" disallow="tram rail_urban rail rail_electric rail_fast ship container cable_car subway aircraft wheelchair scooter drone" speed="27.78" length="14.04" shape="245.17,1154.84 241.10,1168.28"/>
    </edge>
    <edge id=":1477869368_0" function="internal">
        <lane id=":1477869368_0_0" index="0" disallow="tram rail_urban rail rail_electric rail_fast ship container cable_car subway aircraft wheelchair scooter drone" speed="27.78" length="7.85" shape="192.67,1193.37 186.85,1188.09"/>
        <lane id=":1477869368_0_1" index="1" disallow="tram rail_urban rail rail_electric rail_fast ship container cable_car subway aircraft wheelchair scooter drone" speed="27.78" length="7.85" shape="194.82,1191.00 189.00,1185.72"/>
    </edge>
    <edge id=":1477869368_2" function="internal">
        <lane id=":1477869368_2_0" index="0" disallow="tram rail_urban rail rail_electric rail_fast ship container cable_car subway aircraft wheelchair scooter drone" speed="8.71" length="7.45" shape="188.67,1195.13 188.56,1192.68 188.22,1190.68 187.65,1189.15 186.85,1188.09"/>
    </edge>
    <edge id=":1477869861_0" function="internal">
        <lane id=":1477869861_0_0" index="0" disallow="tram rail_urban rail rail_electric rail_fast ship container cable_car subway aircraft wheelchair scooter drone" speed="9.86" length="7.59" shape="187.67,1169.29 189.53,1170.38 191.03,1170.62 192.66,1170.41 194.91,1170.13"/>
    </edge>
    <edge id=":1477869861_1" function="internal">
        <lane id=":1477869861_1_0" index="0" disallow="tram rail_urban rail rail_electric rail_fast ship container cable_car subway aircraft wheelchair scooter drone" speed="27.78" length="7.65" shape="187.67,1169.29 193.73,1174.02"/>
        <lane id=":1477869861_1_1" index="1" disallow="tram rail_urban rail rail_electric rail_fast ship container cable_car subway aircraft wheelchair scooter drone" speed="27.78" length="7.65" shape="185.77,1171.86 191.76,1176.54"/>
    </edge>
    <edge id=":1477869865_0" function="internal">
        <lane id=":1477869865_0_0" index="0" disallow="tram rail_urban rail rail_electric rail_fast ship container cable_car subway aircraft wheelchair scooter drone" speed="6.46" length="9.03" shape="129.84,1116.76 128.47,1118.83 128.11,1120.83 128.74,1122.76 130.38,1124.62"/>
    </edge>
    <edge id=":1477869865_1" function="internal">
        <lane id=":1477869865_1_0" index="0" disallow="tram rail_urban rail rail_electric rail_fast ship container cable_car subway aircraft wheelchair scooter drone" speed="6.53" length="9.09" shape="119.50,1115.15 121.56,1116.51 123.58,1116.88 125.54,1116.25 127.45,1114.63"/>
    </edge>
    <edge id=":1477869865_2" function="internal">
        <lane id=":1477869865_2_0" index="0" disallow="tram rail_urban rail rail_electric rail_fast ship container cable_car subway aircraft wheelchair scooter drone" speed="27.78" length="14.46" shape="119.50,1115.15 130.38,1124.62"/>
        <lane id=":1477869865_2_1" index="1" disallow="tram rail_urban rail rail_electric rail_fast ship container cable_car subway aircraft wheelchair scooter drone" speed="27.78" length="14.46" shape="117.37,1117.55 128.30,1127.06"/>
    </edge>
    <edge id=":1484934730_0" function="internal">
        <lane id=":1484934730_0_0" index="0" disallow="tram rail_urban rail rail_electric rail_fast ship container cable_car subway aircraft wheelchair scooter drone" speed="11.80" length="8.03" shape="259.78,1215.40 260.48,1217.69 260.94,1219.35 261.74,1220.74 263.46,1222.28"/>
    </edge>
    <edge id=":1484934730_1" function="internal">
        <lane id=":1484934730_1_0" index="0" disallow="tram rail_urban rail rail_electric rail_fast ship container cable_car subway aircraft wheelchair scooter drone" speed="27.78" length="8.01" shape="256.66,1217.87 263.46,1222.28"/>
        <lane id=":1484934730_1_1" index="1" disallow="tram rail_urban rail rail_electric rail_fast ship container cable_car subway aircraft wheelchair scooter drone" speed="27.78" length="8.01" shape="254.92,1220.55 261.56,1224.86"/>
    </edge>
    <edge id=":1484934777_0" function="internal">
        <lane id=":1484934777_0_0" index="0" disallow="tram rail_urban rail rail_electric rail_fast ship container cable_car subway aircraft wheelchair scooter drone" speed="6.67" length="9.34" shape="296.69,1238.53 295.58,1240.91 295.44,1243.06 296.28,1244.98 298.09,1246.65"/>
    </edge>
    <edge id=":1484934777_1" function="internal">
        <lane id=":1484934777_1_0" index="0" disallow="tram rail_urban rail rail_electric rail_fast ship container cable_car subway aircraft wheelchair scooter drone" speed="6.32" length="9.04" shape="286.35,1238.14 288.53,1239.37 290.54,1239.56 292.36,1238.70 294.00,1236.80"/>
    </edge>
    <edge id=":1484934777_2" function="internal">
        <lane id=":1484934777_2_0" index="0" disallow="tram rail_urban rail rail_electric rail_fast ship container cable_car subway aircraft wheelchair scooter drone" speed="27.78" length="14.60" shape="286.35,1238.14 298.09,1246.65"/>
        <lane id=":1484934777_2_1" index="1" disallow="tram rail_urban rail rail_electric rail_fast ship container cable_car subway aircraft wheelchair scooter drone" speed="27.78" length="14.60" shape="284.40,1240.67 296.29,1249.30"/>
    </edge>
    <edge id=":1489194779_0" function="internal">
        <lane id=":1489194779_0_0" index="0" disallow="tram rail_urban rail rail_electric rail_fast ship container cable_car subway aircraft wheelchair scooter drone" speed="22.22" length="25.17" shape="186.28,1243.51 179.88,1247.33 173.84,1250.91 168.69,1254.12 164.94,1256.82"/>
    </edge>
    <edge id=":1489194779_1" function="internal">
        <lane id=":1489194779_1_0" index="0" disallow="tram rail_urban rail rail_electric rail_fast ship container cable_car subway aircraft wheelchair scooter drone" speed="6.05" length="10.98" shape="186.28,1243.51 182.42,1244.18 179.26,1242.27 177.94,1239.16"/>
    </edge>
    <edge id=":1489194779_3" function="internal">
        <lane id=":1489194779_3_0" index="0" disallow="tram rail_urban rail rail_electric rail_fast ship container cable_car subway aircraft wheelchair scooter drone" speed="6.05" length="4.13" shape="177.94,1239.16 177.84,1238.91 179.15,1235.28"/>
    </edge>
    <edge id=":1489194779_2" function="internal">
        <lane id=":1489194779_2_0" index="0" disallow="tram rail_urban rail rail_electric rail_fast ship container cable_car subway aircraft wheelchair scooter drone" speed="22.22" length="25.10" shape="162.88,1254.37 166.10,1251.08 169.95,1246.42 174.34,1240.96 179.15,1235.28"/>
    </edge>
    <edge id=":1489194817_0" function="internal">
        <lane id=":1489194817_0_0" index="0" disallow="tram rail_urban rail rail_electric rail_fast ship container cable_car subway aircraft wheelchair scooter drone" speed="22.22" length="11.00" shape="209.56,1234.05 206.50,1234.36 204.24,1234.68 202.00,1235.34 198.97,1236.68"/>
    </edge>
    <edge id=":1489194817_1" function="internal">
        <lane id=":1489194817_1_0" index="0" disallow="tram rail_urban rail rail_electric rail_fast ship container cable_car subway aircraft wheelchair scooter drone" speed="22.22" length="11.40" shape="207.25,1229.01 204.92,1231.48 203.46,1233.36 201.82,1234.98 198.97,1236.68"/>
    </edge>
    <edge id=":1489194888_0" function="internal">
        <lane id=":1489194888_0_0" index="0" disallow="tram rail_urban rail rail_electric rail_fast ship container cable_car subway aircraft wheelchair scooter drone" speed="9.66" length="9.12" shape="188.25,1225.06 189.08,1223.67 189.59,1221.74 189.76,1219.26 189.60,1216.25"/>
    </edge>
    <edge id=":1489194888_1" function="internal">
        <lane id=":1489194888_1_0" index="0" disallow="tram rail_urban rail rail_electric rail_fast ship container cable_car subway aircraft wheelchair scooter drone" speed="22.22" length="9.52" shape="188.25,1225.06 190.06,1222.90 191.16,1221.32 192.16,1219.65 193.67,1217.26"/>
    </edge>
    <edge id=":1494232603_0" function="internal">
        <lane id=":1494232603_0_0" index="0" disallow="tram rail_urban rail rail_electric rail_fast ship container cable_car subway aircraft wheelchair scooter drone" speed="6.52" length="8.55" shape="324.42,1006.12 322.19,1005.49 320.25,1005.69 318.59,1006.73 317.22,1008.60"/>
    </edge>
    <edge id=":1494232636_0" function="internal">
        <lane id=":1494232636_0_0" index="0" disallow="tram rail_urban rail rail_electric rail_fast ship container cable_car subway aircraft wheelchair scooter drone" speed="6.83" length="9.38" shape="309.66,1229.15 307.19,1228.24 305.00,1228.25 303.10,1229.18 301.49,1231.02"/>
    </edge>
    <edge id=":1494232636_1" function="internal">
        <lane id=":1494232636_1_0" index="0" disallow="tram rail_urban rail rail_electric rail_fast ship container cable_car subway aircraft wheelchair scooter drone" speed="7.91" length="14.39" shape="309.66,1229.15 306.44,1226.83 304.79,1224.06 304.72,1220.83 306.23,1217.16"/>
    </edge>
    <edge id=":1494232636_2" function="internal">
        <lane id=":1494232636_2_0" index="0" disallow="tram rail_urban rail rail_electric rail_fast ship container cable_car subway aircraft wheelchair scooter drone" speed="6.40" length="9.04" shape="308.99,1218.79 308.04,1221.09 308.08,1223.12 309.12,1224.86 311.14,1226.31"/>
    </edge>
    <edge id=":1494232636_3" function="internal">
        <lane id=":1494232636_3_0" index="0" disallow="tram rail_urban rail rail_electric rail_fast ship container cable_car subway aircraft wheelchair scooter drone" speed="13.89" length="14.36" shape="308.99,1218.79 301.49,1231.02"/>
    </edge>
    <edge id=":1494232636_4" function="internal">
        <lane id=":1494232636_4_0" index="0" disallow="tram rail_urban rail rail_electric rail_fast ship container cable_car subway aircraft wheelchair scooter drone" speed="13.89" length="14.24" shape="298.79,1229.30 306.23,1217.16"/>
    </edge>
    <edge id=":1494232636_5" function="internal">
        <lane id=":1494232636_5_0" index="0" disallow="tram rail_urban rail rail_electric rail_fast ship container cable_car subway aircraft wheelchair scooter drone" speed="8.27" length="3.76" shape="298.79,1229.30 301.26,1226.46"/>
    </edge>
    <edge id=":1494232636_6" function="internal">
        <lane id=":1494232636_6_0" index="0" disallow="tram rail_urban rail rail_electric rail_fast ship container cable_car subway aircraft wheelchair scooter drone" speed="8.27" length="10.46" shape="301.26,1226.46 304.14,1225.02 307.43,1224.97 311.14,1226.31"/>
    </edge>
    <edge id=":1494232638_0" function="internal">
        <lane id=":1494232638_0_0" index="0" disallow="tram rail_urban rail rail_electric rail_fast ship container cable_car subway aircraft wheelchair scooter drone" speed="13.89" length="14.72" shape="380.22,1265.46 366.94,1259.09"/>
    </edge>
    <edge id=":1494232638_1" function="internal">
        <lane id=":1494232638_1_0" index="0" disallow="tram rail_urban rail rail_electric rail_fast ship container cable_car subway aircraft wheelchair scooter drone" speed="7.88" length="4.39" shape="380.22,1265.46 376.82,1263.34 376.60,1263.03"/>
    </edge>
    <edge id=":1494232638_6" function="internal">
        <lane id=":1494232638_6_0" index="0" disallow="tram rail_urban rail rail_electric rail_fast ship container cable_car subway aircraft wheelchair scooter drone" speed="7.88" length="10.09" shape="376.60,1263.03 375.00,1260.67 374.77,1257.45 376.12,1253.67"/>
    </edge>
    <edge id=":1494232638_2" function="internal">
        <lane id=":1494232638_2_0" index="0" disallow="tram rail_urban rail rail_electric rail_fast ship container cable_car subway aircraft wheelchair scooter drone" speed="6.35" length="9.04" shape="378.94,1255.17 378.10,1257.53 378.25,1259.54 379.38,1261.21 381.51,1262.53"/>
    </edge>
    <edge id=":1494232638_3" function="internal">
        <lane id=":1494232638_3_0" index="0" disallow="tram rail_urban rail rail_electric rail_fast ship container cable_car subway aircraft wheelchair scooter drone" speed="8.07" length="14.38" shape="378.94,1255.17 376.61,1258.41 373.83,1260.14 370.61,1260.37 366.94,1259.09"/>
    </edge>
    <edge id=":1494232638_4" function="internal">
        <lane id=":1494232638_4_0" index="0" disallow="tram rail_urban rail rail_electric rail_fast ship container cable_car subway aircraft wheelchair scooter drone" speed="6.59" length="9.24" shape="368.42,1256.25 370.76,1257.06 372.83,1256.90 374.61,1255.77 376.12,1253.67"/>
    </edge>
    <edge id=":1494232638_5" function="internal">
        <lane id=":1494232638_5_0" index="0" disallow="tram rail_urban rail rail_electric rail_fast ship container cable_car subway aircraft wheelchair scooter drone" speed="13.89" length="14.51" shape="368.42,1256.25 381.51,1262.53"/>
    </edge>
    <edge id=":168578095_0" function="internal">
        <lane id=":168578095_0_0" index="0" disallow="tram rail_urban rail rail_electric rail_fast ship container cable_car subway aircraft wheelchair scooter drone" speed="13.89" length="14.15" shape="188.14,1032.78 179.87,1044.26"/>
    </edge>
    <edge id=":168578095_1" function="internal">
        <lane id=":168578095_1_0" index="0" disallow="tram rail_urban rail rail_electric rail_fast ship container cable_car subway aircraft wheelchair scooter drone" speed="8.63" length="3.64" shape="188.14,1032.78 185.51,1035.29"/>
    </edge>
    <edge id=":168578095_6" function="internal">
        <lane id=":168578095_6_0" index="0" disallow="tram rail_urban rail rail_electric rail_fast ship container cable_car subway aircraft wheelchair scooter drone" speed="8.63" length="10.68" shape="185.51,1035.29 182.49,1036.49 179.09,1036.40 175.30,1035.01"/>
    </edge>
    <edge id=":168578095_2" function="internal">
        <lane id=":168578095_2_0" index="0" disallow="tram rail_urban rail rail_electric rail_fast ship container cable_car subway aircraft wheelchair scooter drone" speed="7.25" length="9.83" shape="176.77,1032.16 179.41,1033.15 181.77,1033.26 183.84,1032.48 185.62,1030.82"/>
    </edge>
    <edge id=":168578095_3" function="internal">
        <lane id=":168578095_3_0" index="0" disallow="tram rail_urban rail rail_electric rail_fast ship container cable_car subway aircraft wheelchair scooter drone" speed="7.80" length="14.67" shape="176.77,1032.16 180.10,1034.53 181.73,1037.34 181.65,1040.58 179.87,1044.26"/>
    </edge>
    <edge id=":168578095_4" function="internal">
        <lane id=":168578095_4_0" index="0" disallow="tram rail_urban rail rail_electric rail_fast ship container cable_car subway aircraft wheelchair scooter drone" speed="6.26" length="9.04" shape="177.22,1042.47 178.31,1040.20 178.36,1038.20 177.36,1036.47 175.30,1035.01"/>
    </edge>
    <edge id=":168578095_5" function="internal">
        <lane id=":168578095_5_0" index="0" disallow="tram rail_urban rail rail_electric rail_fast ship container cable_car subway aircraft wheelchair scooter drone" speed="13.89" length="14.36" shape="177.22,1042.47 185.62,1030.82"/>
    </edge>
    <edge id=":5567185173_0" function="internal">
        <lane id=":5567185173_0_0" index="0" allow="pedestrian delivery bicycle" speed="5.14" length="4.93" shape="135.84,1109.42 135.26,1110.62 135.18,1111.74 135.61,1112.79 136.53,1113.76"/>
    </edge>
    <edge id=":5567185173_1" function="internal">
        <lane id=":5567185173_1_0" index="0" disallow="tram rail_urban rail rail_electric rail_fast ship container cable_car subway aircraft wheelchair scooter drone" speed="13.89" length="5.99" shape="135.84,1109.42 134.84,1110.89 134.12,1111.87 133.35,1112.81 132.17,1114.14"/>
    </edge>
    <edge id=":5567185173_2" function="internal">
        <lane id=":5567185173_2_0" index="0" disallow="tram rail_urban rail rail_electric rail_fast ship container cable_car subway aircraft wheelchair scooter drone" speed="13.89" length="5.56" shape="129.78,1112.01 130.87,1110.78 131.60,1109.91 132.26,1108.99 133.19,1107.63"/>
    </edge>
    <edge id=":5567185173_3" function="internal">
        <lane id=":5567185173_3_0" index="0" allow="pedestrian delivery bicycle" speed="6.14" length="1.60" shape="129.78,1112.01 130.91,1111.33 131.19,1111.34"/>
    </edge>
    <edge id=":5567185173_4" function="internal">
        <lane id=":5567185173_4_0" index="0" allow="pedestrian delivery bicycle" speed="6.14" length="6.00" shape="131.19,1111.34 132.41,1111.39 134.29,1112.20 136.53,1113.76"/>
    </edge>
    <edge id=":5879137015_0" function="internal">
        <lane id=":5879137015_0_0" index="0" disallow="tram rail_urban rail rail_electric rail_fast ship container cable_car subway aircraft wheelchair scooter drone" speed="6.22" length="9.05" shape="158.66,1163.21 156.50,1161.88 154.52,1161.65 152.72,1162.50 151.10,1164.45"/>
    </edge>
    <edge id=":5879137015_1" function="internal">
        <lane id=":5879137015_1_0" index="0" disallow="tram rail_urban rail rail_electric rail_fast ship container cable_car subway aircraft wheelchair scooter drone" speed="27.78" length="14.43" shape="158.66,1163.21 147.63,1153.88"/>
        <lane id=":5879137015_1_1" index="1" disallow="tram rail_urban rail rail_electric rail_fast ship container cable_car subway aircraft wheelchair scooter drone" speed="27.78" length="14.43" shape="160.71,1160.75 149.71,1151.45"/>
    </edge>
    <edge id=":5879137015_3" function="internal">
        <lane id=":5879137015_3_0" index="0" disallow="tram rail_urban rail rail_electric rail_fast ship container cable_car subway aircraft wheelchair scooter drone" speed="7.18" length="9.85" shape="148.38,1162.77 149.57,1160.19 149.85,1157.85 149.20,1155.75 147.63,1153.88"/>
    </edge>
    <edge id=":6801361499_0" function="internal">
        <lane id=":6801361499_0_0" index="0" allow="pedestrian delivery bicycle" speed="5.56" length="4.95" shape="213.72,1301.79 212.33,1301.79 211.13,1302.08 210.14,1302.66 209.35,1303.52"/>
    </edge>
    <edge id=":6801361499_1" function="internal">
        <lane id=":6801361499_1_0" index="0" allow="pedestrian delivery bicycle" speed="5.56" length="8.93" shape="213.72,1301.79 211.41,1301.26 209.64,1300.14 208.41,1298.45 207.71,1296.18"/>
    </edge>
    <edge id=":6801361499_2" function="internal">