<?xml version="1.0" encoding="UTF-8"?>

<!-- generated on 2026-06-05 21:12:23 by Eclipse SUMO netconvert Version 1.24.0
<netconvertConfiguration xmlns:xsi="http://www.w3.org/2001/XMLSchema-instance" xsi:noNamespaceSchemaLocation="http://sumo.dlr.de/xsd/netconvertConfiguration.xsd">

    <input>
        <sumo-net-file value="lagos_big.net.xml"/>
        <edge-files value="patch_big.edg.xml"/>
    </input>

    <output>
        <output-file value="lagos_big.net.xml"/>
    </output>

    <processing>
        <geometry.min-radius.fix.railways value="false"/>
        <geometry.avoid-overlap value="false"/>
        <geometry.max-grade.fix value="false"/>
        <offset.disable-normalization value="true"/>
        <lefthand value="0"/>
    </processing>

    <tls_building>
        <tls.join value="true"/>
        <tls.guess-signals value="true"/>
    </tls_building>

    <junctions>
        <no-turnarounds value="true"/>
        <junctions.corner-detail value="5"/>
        <junctions.limit-turn-speed value="5.50"/>
        <rectangular-lane-cut value="0"/>
    </junctions>

    <pedestrian>
        <walkingareas value="0"/>
    </pedestrian>

</netconvertConfiguration>
-->

<net version="1.20" junctionCornerDetail="5" limitTurnSpeed="5.50" avoidOverlap="0" xmlns:xsi="http://www.w3.org/2001/XMLSchema-instance" xsi:noNamespaceSchemaLocation="http://sumo.dlr.de/xsd/net_file.xsd">

    <location netOffset="-537710.91,-729123.67" convBoundary="0.00,0.00,1526.24,1484.77" origBoundary="3.341025,6.580916,3.379317,6.622337" projParameter="+proj=utm +zone=31 +ellps=WGS84 +datum=WGS84 +units=m +no_defs"/>

    <type id="highway.footway" priority="1" numLanes="1" speed="2.78" allow="pedestrian" oneway="1" width="2.00"/>
    <type id="highway.primary" priority="12" numLanes="2" speed="27.78" disallow="tram rail_urban rail rail_electric rail_fast ship container cable_car subway aircraft wheelchair scooter drone" oneway="0"/>
    <type id="highway.residential" priority="3" numLanes="1" speed="13.89" disallow="tram rail_urban rail rail_electric rail_fast ship container cable_car subway aircraft wheelchair scooter drone" oneway="0"/>
    <type id="highway.secondary" priority="11" numLanes="1" speed="27.78" disallow="tram rail_urban rail rail_electric rail_fast ship container cable_car subway aircraft wheelchair scooter drone" oneway="0"/>
    <type id="highway.secondary_link" priority="6" numLanes="1" speed="22.22" disallow="tram rail_urban rail rail_electric rail_fast ship container cable_car subway aircraft wheelchair scooter drone" oneway="0"/>
    <type id="highway.service" priority="1" numLanes="1" speed="5.56" allow="pedestrian delivery bicycle" oneway="0"/>
    <type id="highway.tertiary" priority="10" numLanes="1" speed="22.22" disallow="tram rail_urban rail rail_electric rail_fast ship container cable_car subway aircraft wheelchair scooter drone" oneway="0"/>

    <edge id=":10264294471_0" function="internal">
        <lane id=":10264294471_0_0" index="0" allow="pedestrian delivery bicycle" speed="5.03" length="5.01" shape="741.83,1349.56 740.80,1348.64 739.73,1348.28 738.62,1348.47 737.46,1349.21"/>
    </edge>
    <edge id=":10264294471_1" function="internal">
        <lane id=":10264294471_1_0" index="0" allow="pedestrian delivery bicycle" speed="6.88" length="10.16" shape="741.83,1349.56 740.34,1347.19 739.96,1344.92 740.68,1342.75 742.50,1340.66"/>
    </edge>
    <edge id=":10264294471_2" function="internal">
        <lane id=":10264294471_2_0" index="0" allow="pedestrian delivery bicycle" speed="5.06" length="5.03" shape="744.59,1343.09 743.69,1344.12 743.34,1345.19 743.53,1346.32 744.27,1347.49"/>
    </edge>
    <edge id=":10264294471_3" function="internal">
        <lane id=":10264294471_3_0" index="0" disallow="tram rail_urban rail rail_electric rail_fast ship container cable_car subway aircraft wheelchair scooter drone" speed="22.22" length="9.40" shape="744.59,1343.09 737.46,1349.21"/>
    </edge>
    <edge id=":10264294471_4" function="internal">
        <lane id=":10264294471_4_0" index="0" disallow="tram rail_urban rail rail_electric rail_fast ship container cable_car subway aircraft wheelchair scooter drone" speed="22.22" length="9.40" shape="735.38,1346.78 742.50,1340.66"/>
    </edge>
    <edge id=":10264294471_5" function="internal">
        <lane id=":10264294471_5_0" index="0" allow="pedestrian delivery bicycle" speed="6.86" length="3.27" shape="735.38,1346.78 737.73,1345.28 738.20,1345.20"/>
    </edge>
    <edge id=":10264294471_6" function="internal">
        <lane id=":10264294471_6_0" index="0" allow="pedestrian delivery bicycle" speed="6.86" length="6.92" shape="738.20,1345.20 740.00,1344.90 742.18,1345.63 744.27,1347.49"/>
    </edge>
    <edge id=":10567669407_0" function="internal">
        <lane id=":10567669407_0_0" index="0" allow="pedestrian delivery bicycle" speed="7.82" length="6.82" shape="894.47,1162.64 896.50,1162.10 898.12,1161.36 899.33,1160.41 900.14,1159.27"/>
    </edge>
    <edge id=":10567669407_1" function="internal">
        <lane id=":10567669407_1_0" index="0" disallow="tram rail_urban rail rail_electric rail_fast ship container cable_car subway aircraft wheelchair scooter drone" speed="27.78" length="7.33" shape="897.10,1165.94 900.14,1159.27"/>
    </edge>
    <edge id=":10567689612_0" function="internal">
        <lane id=":10567689612_0_0" index="0" allow="pedestrian delivery bicycle" speed="7.40" length="6.41" shape="908.76,1252.87 908.20,1250.86 907.49,1249.30 906.64,1248.18 905.63,1247.51"/>
    </edge>
    <edge id=":10567689612_1" function="internal">
        <lane id=":10567689612_1_0" index="0" disallow="tram rail_urban rail rail_electric rail_fast ship container cable_car subway aircraft wheelchair scooter drone" speed="22.22" length="6.90" shape="912.00,1250.16 905.63,1247.51"/>
    </edge>
    <edge id=":10567689613_0" function="internal">
        <lane id=":10567689613_0_0" index="0" allow="pedestrian delivery bicycle" speed="5.74" length="5.51" shape="927.46,1256.75 926.23,1256.41 925.02,1256.57 923.83,1257.23 922.65,1258.39"/>
    </edge>
    <edge id=":10567689613_1" function="internal">
        <lane id=":10567689613_1_0" index="0" disallow="tram rail_urban rail rail_electric rail_fast ship container cable_car subway aircraft wheelchair scooter drone" speed="22.22" length="6.40" shape="927.46,1256.75 921.60,1254.16"/>
    </edge>
    <edge id=":10567689614_0" function="internal">
        <lane id=":10567689614_0_0" index="0" disallow="tram rail_urban rail rail_electric rail_fast ship container cable_car subway aircraft wheelchair scooter drone" speed="25.00" length="72.30" shape="1010.56,1298.14 946.02,1265.57"/>
    </edge>
    <edge id=":10567689614_1" function="internal">
        <lane id=":10567689614_1_0" index="0" disallow="tram rail_urban rail rail_electric rail_fast ship container cable_car subway aircraft wheelchair scooter drone" speed="27.78" length="70.69" shape="1010.56,1298.14 949.05,1263.14"/>
        <lane id=":10567689614_1_1" index="1" disallow="tram rail_urban rail rail_electric rail_fast ship container cable_car subway aircraft wheelchair scooter drone" speed="27.78" length="70.69" shape="1012.01,1295.29 950.64,1260.37"/>
    </edge>
    <edge id=":10698677325_0" function="internal">
        <lane id=":10698677325_0_0" index="0" allow="pedestrian delivery bicycle" speed="4.93" length="5.14" shape="760.62,1113.22 759.43,1112.42 758.31,1112.22 757.25,1112.64 756.25,1113.66"/>
    </edge>
    <edge id=":10698677325_1" function="internal">
        <lane id=":10698677325_1_0" index="0" disallow="tram rail_urban rail rail_electric rail_fast ship container cable_car subway aircraft wheelchair scooter drone" speed="27.78" length="9.44" shape="760.62,1113.22 753.65,1106.86"/>
        <lane id=":10698677325_1_1" index="1" disallow="tram rail_urban rail rail_electric rail_fast ship container cable_car subway aircraft wheelchair scooter drone" speed="27.78" length="9.44" shape="762.77,1110.86 755.80,1104.49"/>
    </edge>
    <edge id=":10698677325_3" function="internal">
        <lane id=":10698677325_3_0" index="0" allow="pedestrian delivery bicycle" speed="5.43" length="5.47" shape="753.67,1111.77 754.47,1110.36 754.73,1109.07 754.46,1107.91 753.65,1106.86"/>
    </edge>
    <edge id=":12245849471_0" function="internal">
        <lane id=":12245849471_0_0" index="0" disallow="tram rail_urban rail rail_electric rail_fast ship container cable_car subway aircraft wheelchair scooter drone" speed="27.78" length="5.94" shape="1032.25,1309.12 1026.95,1306.44"/>
        <lane id=":12245849471_0_1" index="1" disallow="tram rail_urban rail rail_electric rail_fast ship container cable_car subway aircraft wheelchair scooter drone" speed="27.78" length="5.94" shape="1033.69,1306.27 1028.39,1303.58"/>
    </edge>
    <edge id=":12245849472_0" function="internal">
        <lane id=":12245849472_0_0" index="0" disallow="tram rail_urban rail rail_electric rail_fast ship container cable_car subway aircraft wheelchair scooter drone" speed="27.78" length="5.29" shape="1034.42,1295.14 1039.04,1297.73"/>
        <lane id=":12245849472_0_1" index="1" disallow="tram rail_urban rail rail_electric rail_fast ship container cable_car subway aircraft wheelchair scooter drone" speed="27.78" length="5.29" shape="1032.86,1297.93 1037.47,1300.52"/>
    </edge>
    <edge id=":12245849483_0" function="internal">
        <lane id=":12245849483_0_0" index="0" disallow="tram rail_urban rail rail_electric rail_fast ship container cable_car subway aircraft wheelchair scooter drone" speed="22.22" length="5.01" shape="877.34,1178.75 878.80,1178.55 879.76,1178.24 880.70,1177.78 882.06,1177.18"/>
    </edge>
    <edge id=":12245849487_0" function="internal">
        <lane id=":12245849487_0_0" index="0" disallow="tram rail_urban rail rail_electric rail_fast ship container cable_car subway aircraft wheelchair scooter drone" speed="22.22" length="5.32" shape="859.65,1220.09 859.47,1218.51 859.35,1217.44 859.28,1216.36 859.26,1214.78"/>
    </edge>
    <edge id=":12245849492_0" function="internal">
        <lane id=":12245849492_0_0" index="0" disallow="tram rail_urban rail rail_electric rail_fast ship container cable_car subway aircraft wheelchair scooter drone" speed="22.22" length="5.85" shape="892.15,1242.19 886.33,1242.85"/>
    </edge>
    <edge id=":12245849494_0" function="internal">
        <lane id=":12245849494_0_0" index="0" disallow="tram rail_urban rail rail_electric rail_fast ship container cable_car subway aircraft wheelchair scooter drone" speed="22.22" length="5.03" shape="921.79,1201.22 923.51,1205.95"/>
    </edge>
    <edge id=":1477869248_0" function="internal">
        <lane id=":1477869248_0_0" index="0" disallow="tram rail_urban rail rail_electric rail_fast ship container cable_car subway aircraft wheelchair scooter drone" speed="9.33" length="7.71" shape="889.05,1174.43 891.24,1173.68 892.83,1173.12 894.05,1172.17 895.16,1170.30"/>
    </edge>
    <edge id=":1477869248_1" function="internal">
        <lane id=":1477869248_1_0" index="0" disallow="tram rail_urban rail rail_electric rail_fast ship container cable_car subway aircraft wheelchair scooter drone" speed="27.78" length="7.84" shape="891.95,1177.46 895.16,1170.30"/>
    </edge>
    <edge id=":1477869288_0" function="internal">
        <lane id=":1477869288_0_0" index="0" disallow="tram rail_urban rail rail_electric rail_fast ship container cable_car subway aircraft wheelchair scooter drone" speed="22.73" length="13.89" shape="915.78,1164.33 915.19,1168.61 915.37,1171.85 916.00,1174.76 916.77,1178.02"/>
    </edge>
    <edge id=":1477869288_1" function="internal">
        <lane id=":1477869288_1_0" index="0" disallow="tram rail_urban rail rail_electric rail_fast ship container cable_car subway aircraft wheelchair scooter drone" speed="27.78" length="14.04" shape="915.78,1164.33 911.71,1177.76"/>
    </edge>
    <edge id=":1477869368_0" function="internal">
        <lane id=":1477869368_0_0" index="0" disallow="tram rail_urban rail rail_electric rail_fast ship container cable_car subway aircraft wheelchair scooter drone" speed="27.78" length="7.85" shape="863.27,1202.86 857.45,1197.58"/>
        <lane id=":1477869368_0_1" index="1" disallow="tram rail_urban rail rail_electric rail_fast ship container cable_car subway aircraft wheelchair scooter drone" speed="27.78" length="7.85" shape="865.42,1200.49 859.60,1195.21"/>
    </edge>
    <edge id=":1477869368_2" function="internal">
        <lane id=":1477869368_2_0" index="0" disallow="tram rail_urban rail rail_electric rail_fast ship container cable_car subway aircraft wheelchair scooter drone" speed="8.71" length="7.45" shape="859.28,1204.62 859.17,1202.17 858.83,1200.18 858.25,1198.65 857.45,1197.58"/>
    </edge>
    <edge id=":1477869861_0" function="internal">
        <lane id=":1477869861_0_0" index="0" disallow="tram rail_urban rail rail_electric rail_fast ship container cable_car subway aircraft wheelchair scooter drone" speed="9.87" length="7.59" shape="858.27,1178.78 860.13,1179.87 861.63,1180.12 863.26,1179.91 865.52,1179.62"/>
    </edge>
    <edge id=":1477869861_1" function="internal">
        <lane id=":1477869861_1_0" index="0" disallow="tram rail_urban rail rail_electric rail_fast ship container cable_car subway aircraft wheelchair scooter drone" speed="27.78" length="7.65" shape="858.27,1178.78 864.34,1183.51"/>
        <lane id=":1477869861_1_1" index="1" disallow="tram rail_urban rail rail_electric rail_fast ship container cable_car subway aircraft wheelchair scooter drone" speed="27.78" length="7.65" shape="856.37,1181.36 862.37,1186.03"/>
    </edge>
    <edge id=":1477869865_0" function="internal">
        <lane id=":1477869865_0_0" index="0" disallow="tram rail_urban rail rail_electric rail_fast ship container cable_car subway aircraft wheelchair scooter drone" speed="6.47" length="9.03" shape="800.45,1126.25 799.08,1128.32 798.71,1130.32 799.35,1132.25 800.98,1134.12"/>
    </edge>
    <edge id=":1477869865_1" function="internal">
        <lane id=":1477869865_1_0" index="0" disallow="tram rail_urban rail rail_electric rail_fast ship container cable_car subway aircraft wheelchair scooter drone" speed="6.53" length="9.08" shape="790.10,1124.64 792.17,1126.00 794.19,1126.37 796.15,1125.74 798.06,1124.12"/>
    </edge>
    <edge id=":1477869865_2" function="internal">
        <lane id=":1477869865_2_0" index="0" disallow="tram rail_urban rail rail_electric rail_fast ship container cable_car subway aircraft wheelchair scooter drone" speed="27.78" length="14.45" shape="790.10,1124.64 800.98,1134.12"/>
        <lane id=":1477869865_2_1" index="1" disallow="tram rail_urban rail rail_electric rail_fast ship container cable_car subway aircraft wheelchair scooter drone" speed="27.78" length="14.45" shape="787.98,1127.04 798.90,1136.55"/>
    </edge>
    <edge id=":1484934730_0" function="internal">
        <lane id=":1484934730_0_0" index="0" disallow="tram rail_urban rail rail_electric rail_fast ship container cable_car subway aircraft wheelchair scooter drone" speed="11.80" length="8.03" shape="930.38,1224.89 931.08,1227.19 931.54,1228.85 932.34,1230.25 934.06,1231.78"/>
    </edge>
    <edge id=":1484934730_1" function="internal">
        <lane id=":1484934730_1_0" index="0" disallow="tram rail_urban rail rail_electric rail_fast ship container cable_car subway aircraft wheelchair scooter drone" speed="27.78" length="8.01" shape="927.26,1227.37 934.06,1231.78"/>
        <lane id=":1484934730_1_1" index="1" disallow="tram rail_urban rail rail_electric rail_fast ship container cable_car subway aircraft wheelchair scooter drone" speed="27.78" length="8.01" shape="925.51,1230.05 932.17,1234.36"/>
    </edge>
    <edge id=":1484934777_0" function="internal">
        <lane id=":1484934777_0_0" index="0" disallow="tram rail_urban rail rail_electric rail_fast ship container cable_car subway aircraft wheelchair scooter drone" speed="6.67" length="9.34" shape="967.29,1248.02 966.18,1250.41 966.04,1252.56 966.88,1254.47 968.69,1256.15"/>
    </edge>
    <edge id=":1484934777_1" function="internal">
        <lane id=":1484934777_1_0" index="0" disallow="tram rail_urban rail rail_electric rail_fast ship container cable_car subway aircraft wheelchair scooter drone" speed="6.32" length="9.04" shape="956.95,1247.64 959.13,1248.87 961.14,1249.06 962.96,1248.20 964.60,1246.30"/>
    </edge>
    <edge id=":1484934777_2" function="internal">
        <lane id=":1484934777_2_0" index="0" disallow="tram rail_urban rail rail_electric rail_fast ship container cable_car subway aircraft wheelchair scooter drone" speed="27.78" length="14.60" shape="956.95,1247.64 968.69,1256.15"/>
        <lane id=":1484934777_2_1" index="1" disallow="tram rail_urban rail rail_electric rail_fast ship container cable_car subway aircraft wheelchair scooter drone" speed="27.78" length="14.60" shape="955.00,1250.17 966.89,1258.80"/>
    </edge>
    <edge id=":1489194779_0" function="internal">
        <lane id=":1489194779_0_0" index="0" disallow="tram rail_urban rail rail_electric rail_fast ship container cable_car subway aircraft wheelchair scooter drone" speed="22.22" length="25.15" shape="856.86,1253.01 850.47,1256.83 844.43,1260.41 839.28,1263.61 835.54,1266.31"/>
    </edge>
    <edge id=":1489194779_1" function="internal">
        <lane id=":1489194779_1_0" index="0" disallow="tram rail_urban rail rail_electric rail_fast ship container cable_car subway aircraft wheelchair scooter drone" speed="6.05" length="10.98" shape="856.86,1253.01 853.00,1253.69 849.85,1251.77 848.53,1248.67"/>
    </edge>
    <edge id=":1489194779_3" function="internal">
        <lane id=":1489194779_3_0" index="0" disallow="tram rail_urban rail rail_electric rail_fast ship container cable_car subway aircraft wheelchair scooter drone" speed="6.05" length="4.13" shape="848.53,1248.67 848.42,1248.42 849.73,1244.79"/>
    </edge>
    <edge id=":1489194779_2" function="internal">
        <lane id=":1489194779_2_0" index="0" disallow="tram rail_urban rail rail_electric rail_fast ship container cable_car subway aircraft wheelchair scooter drone" speed="22.22" length="25.08" shape="833.48,1263.86 836.70,1260.58 840.55,1255.92 844.92,1250.46 849.73,1244.79"/>
    </edge>
    <edge id=":1489194817_0" function="internal">
        <lane id=":1489194817_0_0" index="0" disallow="tram rail_urban rail rail_electric rail_fast ship container cable_car subway aircraft wheelchair scooter drone" speed="22.22" length="11.01" shape="880.16,1243.54 877.10,1243.85 874.84,1244.17 872.59,1244.84 869.57,1246.18"/>
    </edge>
    <edge id=":1489194817_1" function="internal">
        <lane id=":1489194817_1_0" index="0" disallow="tram rail_urban rail rail_electric rail_fast ship container cable_car subway aircraft wheelchair scooter drone" speed="22.22" length="11.40" shape="877.85,1238.51 875.52,1240.98 874.06,1242.85 872.42,1244.47 869.57,1246.18"/>
    </edge>
    <edge id=":1489194888_0" function="internal">
        <lane id=":1489194888_0_0" index="0" disallow="tram rail_urban rail rail_electric rail_fast ship container cable_car subway aircraft wheelchair scooter drone" speed="9.65" length="9.12" shape="858.86,1234.55 859.69,1233.16 860.19,1231.23 860.37,1228.76 860.21,1225.74"/>
    </edge>
    <edge id=":1489194888_1" function="internal">
        <lane id=":1489194888_1_0" index="0" disallow="tram rail_urban rail rail_electric rail_fast ship container cable_car subway aircraft wheelchair scooter drone" speed="22.22" length="9.52" shape="858.86,1234.55 860.67,1232.40 861.77,1230.81 862.77,1229.14 864.27,1226.75"/>
    </edge>
    <edge id=":1494232603_0" function="internal">
        <lane id=":1494232603_0_0" index="0" disallow="tram rail_urban rail rail_electric rail_fast ship container cable_car subway aircraft wheelchair scooter drone" speed="6.81" length="9.41" shape="995.71,1015.93 993.17,1015.18 990.98,1015.33 989.15,1016.39 987.68,1018.36"/>
    </edge>
    <edge id=":1494232603_1" function="internal">
        <lane id=":1494232603_1_0" index="0" disallow="tram rail_urban rail rail_electric rail_fast ship container cable_car subway aircraft wheelchair scooter drone" speed="6.36" length="9.04" shape="994.44,1005.63 993.60,1007.99 993.75,1010.00 994.88,1011.67 997.00,1013.00"/>
    </edge>
    <edge id=":1494232603_2" function="internal">
        <lane id=":1494232603_2_0" index="0" disallow="tram rail_urban rail rail_electric rail_fast ship container cable_car subway aircraft wheelchair scooter drone" speed="27.78" length="14.41" shape="994.44,1005.63 987.68,1018.36"/>
    </edge>
    <edge id=":1494232636_0" function="internal">
        <lane id=":1494232636_0_0" index="0" disallow="tram rail_urban rail rail_electric rail_fast ship container cable_car subway aircraft wheelchair scooter drone" speed="6.83" length="9.38" shape="980.26,1238.64 977.79,1237.73 975.60,1237.74 973.70,1238.67 972.09,1240.52"/>
    </edge>
    <edge id=":1494232636_1" function="internal">
        <lane id=":1494232636_1_0" index="0" disallow="tram rail_urban rail rail_electric rail_fast ship container cable_car subway aircraft wheelchair scooter drone" speed="7.91" length="14.39" shape="980.26,1238.64 977.04,1236.32 975.39,1233.55 975.32,1230.32 976.83,1226.65"/>
    </edge>
    <edge id=":1494232636_2" function="internal">
        <lane id=":1494232636_2_0" index="0" disallow="tram rail_urban rail rail_electric rail_fast ship container cable_car subway aircraft wheelchair scooter drone" speed="6.40" length="9.04" shape="979.59,1228.28 978.64,1230.58 978.68,1232.61 979.72,1234.35 981.74,1235.80"/>
    </edge>
    <edge id=":1494232636_3" function="internal">
        <lane id=":1494232636_3_0" index="0" disallow="tram rail_urban rail rail_electric rail_fast ship container cable_car subway aircraft wheelchair scooter drone" speed="13.89" length="14.36" shape="979.59,1228.28 972.09,1240.52"/>
    </edge>
    <edge id=":1494232636_4" function="internal">
        <lane id=":1494232636_4_0" index="0" disallow="tram rail_urban rail rail_electric rail_fast ship container cable_car subway aircraft wheelchair scooter drone" speed="13.89" length="14.24" shape="969.39,1238.79 976.83,1226.65"/>
    </edge>
    <edge id=":1494232636_5" function="internal">
        <lane id=":1494232636_5_0" index="0" disallow="tram rail_urban rail rail_electric rail_fast ship container cable_car subway aircraft wheelchair scooter drone" speed="8.27" length="3.76" shape="969.39,1238.79 971.86,1235.95"/>
    </edge>
    <edge id=":1494232636_6" function="internal">
        <lane id=":1494232636_6_0" index="0" disallow="tram rail_urban rail rail_electric rail_fast ship container cable_car subway aircraft wheelchair scooter drone" speed="8.27" length="10.46" shape="971.86,1235.95 974.74,1234.51 978.03,1234.46 981.74,1235.80"/>
    </edge>
    <edge id=":1494232638_0" function="internal">
        <lane id=":1494232638_0_0" index="0" disallow="tram rail_urban rail rail_electric rail_fast ship container cable_car subway aircraft wheelchair scooter drone" speed="13.89" length="14.72" shape="1050.82,1274.95 1037.54,1268.58"/>
    </edge>
    <edge id=":1494232638_1" function="internal">
        <lane id=":1494232638_1_0" index="0" disallow="tram rail_urban rail rail_electric rail_fast ship container cable_car subway aircraft wheelchair scooter drone" speed="7.88" length="4.39" shape="1050.82,1274.95 1047.42,1272.83 1047.20,1272.52"/>
    </edge>
    <edge id=":1494232638_6" function="internal">
        <lane id=":1494232638_6_0" index="0" disallow="tram rail_urban rail rail_electric rail_fast ship container cable_car subway aircraft wheelchair scooter drone" speed="7.88" length="10.09" shape="1047.20,1272.52 1045.60,1270.16 1045.37,1266.94 1046.72,1263.16"/>
    </edge>
    <edge id=":1494232638_2" function="internal">
        <lane id=":1494232638_2_0" index="0" disallow="tram rail_urban rail rail_electric rail_fast ship container cable_car subway aircraft wheelchair scooter drone" speed="6.35" length="9.04" shape="1049.54,1264.66 1048.70,1267.02 1048.85,1269.03 1049.98,1270.70 1052.11,1272.02"/>
    </edge>
    <edge id=":1494232638_3" function="internal">
        <lane id=":1494232638_3_0" index="0" disallow="tram rail_urban rail rail_electric rail_fast ship container cable_car subway aircraft wheelchair scooter drone" speed="8.07" length="14.38" shape="1049.54,1264.66 1047.21,1267.90 1044.43,1269.63 1041.21,1269.86 1037.54,1268.58"/>
    </edge>
    <edge id=":1494232638_4" function="internal">
        <lane id=":1494232638_4_0" index="0" disallow="tram rail_urban rail rail_electric rail_fast ship container cable_car subway aircraft wheelchair scooter drone" speed="6.59" length="9.24" shape="1039.02,1265.74 1041.36,1266.55 1043.43,1266.39 1045.21,1265.26 1046.72,1263.16"/>
    </edge>
    <edge id=":1494232638_5" function="internal">
        <lane id=":1494232638_5_0" index="0" disallow="tram rail_urban rail rail_electric rail_fast ship container cable_car subway aircraft wheelchair scooter drone" speed="13.89" length="14.51" shape="1039.02,1265.74 1052.11,1272.02"/>
    </edge>
    <edge id=":1496403512_0" function="internal">
        <lane id=":1496403512_0_0" index="0" disallow="tram rail_urban rail rail_electric rail_fast ship container cable_car subway aircraft wheelchair scooter drone" speed="6.58" length="9.12" shape="676.79,1006.02 675.31,1008.06 674.81,1010.08 675.30,1012.07 676.78,1014.06"/>
    </edge>
    <edge id=":1496403512_1" function="internal">
        <lane id=":1496403512_1_0" index="0" disallow="tram rail_urban rail rail_electric rail_fast ship container cable_car subway aircraft wheelchair scooter drone" speed="6.47" length="9.03" shape="666.59,1003.88 668.58,1005.36 670.56,1005.84 672.53,1005.32 674.49,1003.80"/>
    </edge>
    <edge id=":1496403512_2" function="internal">
        <lane id=":1496403512_2_0" index="0" disallow="tram rail_urban rail rail_electric rail_fast ship container cable_car subway aircraft wheelchair scooter drone" speed="27.78" length="14.39" shape="666.59,1003.88 676.78,1014.06"/>
        <lane id=":1496403512_2_1" index="1" disallow="tram rail_urban rail rail_electric rail_fast ship container cable_car subway aircraft wheelchair scooter drone" speed="27.78" length="14.39" shape="664.33,1006.14 674.51,1016.32"/>
    </edge>
    <edge id=":1496403716_0" function="internal">
        <lane id=":1496403716_0_0" index="0" disallow="tram rail_urban rail rail_electric rail_fast ship container cable_car subway aircraft wheelchair scooter drone" speed="13.89" length="14.46" shape="801.13,1021.50 788.31,1014.81"/>
    </edge>
    <edge id=":1496403716_1" function="internal">
        <lane id=":1496403716_1_0" index="0" disallow="tram rail_urban rail rail_electric rail_fast ship container cable_car subway aircraft wheelchair scooter drone" speed="7.95" length="4.14" shape="801.13,1021.50 797.92,1019.22 797.82,1019.05"/>
    </edge>
    <edge id=":1496403716_6" function="internal">
        <lane id=":1496403716_6_0" index="0" disallow="tram rail_urban rail rail_electric rail_fast ship container cable_car subway aircraft wheelchair scooter drone" speed="7.95" length="10.17" shape="797.82,1019.05 796.24,1016.47 796.10,1013.26 797.50,1009.58"/>
    </edge>
    <edge id=":1496403716_2" function="internal">
        <lane id=":1496403716_2_0" index="0" disallow="tram rail_urban rail rail_electric rail_fast ship container cable_car subway aircraft wheelchair scooter drone" speed="6.44" length="9.03" shape="800.30,1011.13 799.42,1013.45 799.51,1015.48 800.57,1017.21 802.59,1018.65"/>
    </edge>
    <edge id=":1496403716_3" function="internal">
        <lane id=":1496403716_3_0" index="0" disallow="tram rail_urban rail rail_electric rail_fast ship container cable_car subway aircraft wheelchair scooter drone" speed="8.07" length="14.25" shape="800.30,1011.13 797.94,1014.27 795.16,1015.93 791.95,1016.11 788.31,1014.81"/>
    </edge>
    <edge id=":1496403716_4" function="internal">
        <lane id=":1496403716_4_0" index="0" disallow="tram rail_urban rail rail_electric rail_fast ship container cable_car subway aircraft wheelchair scooter drone" speed="6.59" length="9.16" shape="789.81,1011.99 792.13,1012.81 794.19,1012.69 795.98,1011.61 797.50,1009.58"/>
    </edge>
    <edge id=":1496403716_5" function="internal">
        <lane id=":1496403716_5_0" index="0" disallow="tram rail_urban rail rail_electric rail_fast ship container cable_car subway aircraft wheelchair scooter drone" speed="13.89" length="14.42" shape="789.81,1011.99 802.59,1018.65"/>
    </edge>
    <edge id=":168578095_0" function="internal">
        <lane id=":168578095_0_0" index="0" disallow="tram rail_urban rail rail_electric rail_fast ship container cable_car subway aircraft wheelchair scooter drone" speed="13.89" length="14.15" shape="858.75,1042.28 850.48,1053.76"/>
    </edge>
    <edge id=":168578095_1" function="internal">
        <lane id=":168578095_1_0" index="0" disallow="tram rail_urban rail rail_electric rail_fast ship container cable_car subway aircraft wheelchair scooter drone" speed="8.63" length="3.64" shape="858.75,1042.28 856.12,1044.79"/>
    </edge>
    <edge id=":168578095_6" function="internal">
        <lane id=":168578095_6_0" index="0" disallow="tram rail_urban rail rail_electric rail_fast ship container cable_car subway aircraft wheelchair scooter drone" speed="8.63" length="10.69" shape="856.12,1044.79 853.10,1045.99 849.70,1045.90 845.91,1044.51"/>
    </edge>
    <edge id=":168578095_2" function="internal">
        <lane id=":168578095_2_0" index="0" disallow="tram rail_urban rail rail_electric rail_fast ship container cable_car subway aircraft wheelchair scooter drone" speed="7.25" length="9.83" shape="847.37,1041.66 850.02,1042.65 852.38,1042.76 854.45,1041.98 856.22,1040.32"/>
    </edge>
    <edge id=":168578095_3" function="internal">