<?xml version="1.0" encoding="UTF-8"?>

<configuration>

    <input>
        <net-file value="lagos.net.xml"/>
        <route-files value="lagos_calib.rou.xml"/>
    </input>

    <time>
        <begin value="0"/>
        <end value="3600"/>
        <step-length value="1"/>
    </time>

</configuration>
