<?xml version="1.0" encoding="UTF-8"?>

<!-- generated on 2026-06-04 20:54:28 by Eclipse SUMO netconvert Version 1.24.0
<netconvertConfiguration xmlns:xsi="http://www.w3.org/2001/XMLSchema-instance" xsi:noNamespaceSchemaLocation="http://sumo.dlr.de/xsd/netconvertConfiguration.xsd">

    <input>
        <osm-files value="map.osm"/>
    </input>

    <output>
        <output-file value="lagos_full.net.xml"/>
    </output>

    <projection>
        <proj.utm value="true"/>
    </projection>

    <processing>
        <geometry.remove value="true"/>
        <roundabouts.guess value="true"/>
    </processing>

    <tls_building>
        <tls.join value="true"/>
        <tls.guess-signals value="true"/>
    </tls_building>

    <ramp_guessing>
        <ramps.guess value="true"/>
    </ramp_guessing>

    <edge_removal>
        <remove-edges.isolated value="true"/>
    </edge_removal>

    <junctions>
        <no-turnarounds value="true"/>
        <junctions.join value="true"/>
    </junctions>

</netconvertConfiguration>
-->

<net version="1.20" junctionCornerDetail="5" limitTurnSpeed="5.50" xmlns:xsi="http://www.w3.org/2001/XMLSchema-instance" xsi:noNamespaceSchemaLocation="http://sumo.dlr.de/xsd/net_file.xsd">

    <location netOffset="-537698.12,-728242.52" convBoundary="0.00,0.00,4233.75,3342.59" origBoundary="3.341025,6.580916,3.379317,6.622337" projParameter="+proj=utm +zone=31 +ellps=WGS84 +datum=WGS84 +units=m +no_defs"/>

    <type id="highway.footway" priority="1" numLanes="1" speed="2.78" allow="pedestrian" oneway="1" width="2.00"/>
    <type id="highway.primary" priority="12" numLanes="2" speed="27.78" disallow="tram rail_urban rail rail_electric rail_fast ship container cable_car subway aircraft wheelchair scooter drone" oneway="0"/>
    <type id="highway.residential" priority="3" numLanes="1" speed="13.89" disallow="tram rail_urban rail rail_electric rail_fast ship container cable_car subway aircraft wheelchair scooter drone" oneway="0"/>
    <type id="highway.secondary" priority="11" numLanes="1" speed="27.78" disallow="tram rail_urban rail rail_electric rail_fast ship container cable_car subway aircraft wheelchair scooter drone" oneway="0"/>
    <type id="highway.secondary_link" priority="6" numLanes="1" speed="22.22" disallow="tram rail_urban rail rail_electric rail_fast ship container cable_car subway aircraft wheelchair scooter drone" oneway="0"/>
    <type id="highway.service" priority="1" numLanes="1" speed="5.56" allow="pedestrian delivery bicycle" oneway="0"/>
    <type id="highway.tertiary" priority="10" numLanes="1" speed="22.22" disallow="tram rail_urban rail rail_electric rail_fast ship container cable_car subway aircraft wheelchair scooter drone" oneway="0"/>

    <edge id=":10264294471_0" function="internal">
        <lane id=":10264294471_0_0" index="0" allow="pedestrian delivery bicycle" speed="5.03" length="5.01" shape="754.62,2230.71 753.60,2229.80 752.53,2229.44 751.41,2229.63 750.25,2230.36"/>
    </edge>
    <edge id=":10264294471_1" function="internal">
        <lane id=":10264294471_1_0" index="0" allow="pedestrian delivery bicycle" speed="6.88" length="10.16" shape="754.62,2230.71 753.14,2228.35 752.75,2226.08 753.47,2223.90 755.30,2221.81"/>
    </edge>
    <edge id=":10264294471_2" function="internal">
        <lane id=":10264294471_2_0" index="0" allow="pedestrian delivery bicycle" speed="5.06" length="5.03" shape="757.38,2224.24 756.49,2225.27 756.13,2226.35 756.33,2227.47 757.07,2228.64"/>
    </edge>
    <edge id=":10264294471_3" function="internal">
        <lane id=":10264294471_3_0" index="0" disallow="tram rail_urban rail rail_electric rail_fast ship container cable_car subway aircraft wheelchair scooter drone" speed="22.22" length="9.40" shape="757.38,2224.24 750.25,2230.36"/>
    </edge>
    <edge id=":10264294471_4" function="internal">
        <lane id=":10264294471_4_0" index="0" disallow="tram rail_urban rail rail_electric rail_fast ship container cable_car subway aircraft wheelchair scooter drone" speed="22.22" length="9.40" shape="748.17,2227.94 755.30,2221.81"/>
    </edge>
    <edge id=":10264294471_5" function="internal">
        <lane id=":10264294471_5_0" index="0" allow="pedestrian delivery bicycle" speed="6.86" length="3.27" shape="748.17,2227.94 750.53,2226.43 750.99,2226.35"/>
    </edge>
    <edge id=":10264294471_6" function="internal">
        <lane id=":10264294471_6_0" index="0" allow="pedestrian delivery bicycle" speed="6.86" length="6.92" shape="750.99,2226.35 752.80,2226.05 754.98,2226.79 757.07,2228.64"/>
    </edge>
    <edge id=":10264294476_0" function="internal">
        <lane id=":10264294476_0_0" index="0" allow="pedestrian delivery bicycle" speed="5.00" length="5.04" shape="660.01,1935.63 658.74,1935.08 657.61,1935.07 656.62,1935.62 655.76,1936.71"/>
    </edge>
    <edge id=":10264294476_1" function="internal">
        <lane id=":10264294476_1_0" index="0" allow="pedestrian delivery bicycle" speed="5.56" length="9.48" shape="660.01,1935.63 651.84,1930.83"/>
    </edge>
    <edge id=":10264294476_2" function="internal">
        <lane id=":10264294476_2_0" index="0" allow="pedestrian delivery bicycle" speed="5.56" length="9.64" shape="653.39,1928.03 661.70,1932.91"/>
    </edge>
    <edge id=":10264294476_3" function="internal">
        <lane id=":10264294476_3_0" index="0" allow="pedestrian delivery bicycle" speed="5.56" length="10.29" shape="653.39,1928.03 655.63,1929.73 656.77,1931.75 656.81,1934.07 655.76,1936.71"/>
    </edge>
    <edge id=":10264294476_4" function="internal">
        <lane id=":10264294476_4_0" index="0" allow="pedestrian delivery bicycle" speed="5.06" length="5.08" shape="652.98,1935.13 653.51,1933.82 653.49,1932.66 652.94,1931.67 651.84,1930.83"/>
    </edge>
    <edge id=":10264294476_5" function="internal">
        <lane id=":10264294476_5_0" index="0" allow="pedestrian delivery bicycle" speed="5.56" length="10.35" shape="652.98,1935.13 654.73,1932.88 656.77,1931.76 659.09,1931.77 661.70,1932.91"/>
    </edge>
    <edge id=":10264294478_0" function="internal">
        <lane id=":10264294478_0_0" index="0" allow="pedestrian delivery bicycle" speed="5.02" length="5.04" shape="641.29,1924.98 639.99,1924.49 638.86,1924.53 637.88,1925.11 637.07,1926.23"/>
    </edge>
    <edge id=":10264294478_1" function="internal">
        <lane id=":10264294478_1_0" index="0" allow="pedestrian delivery bicycle" speed="5.56" length="10.29" shape="641.29,1924.98 639.03,1923.27 637.89,1921.26 637.85,1918.94 638.93,1916.32"/>
    </edge>
    <edge id=":10264294478_2" function="internal">
        <lane id=":10264294478_2_0" index="0" allow="pedestrian delivery bicycle" speed="5.01" length="5.03" shape="641.69,1917.95 641.16,1919.23 641.18,1920.36 641.74,1921.35 642.84,1922.18"/>
    </edge>
    <edge id=":10264294478_3" function="internal">
        <lane id=":10264294478_3_0" index="0" allow="pedestrian delivery bicycle" speed="5.56" length="9.48" shape="641.69,1917.95 637.07,1926.23"/>
    </edge>
    <edge id=":10264294478_4" function="internal">
        <lane id=":10264294478_4_0" index="0" allow="pedestrian delivery bicycle" speed="5.56" length="9.64" shape="634.24,1924.75 638.93,1916.32"/>
    </edge>
    <edge id=":10264294478_5" function="internal">
        <lane id=":10264294478_5_0" index="0" allow="pedestrian delivery bicycle" speed="5.56" length="10.28" shape="634.24,1924.75 635.90,1922.46 637.88,1921.27 640.19,1921.17 642.84,1922.18"/>
    </edge>
    <edge id=":10567669407_0" function="internal">
        <lane id=":10567669407_0_0" index="0" allow="pedestrian delivery bicycle" speed="10.11" length="11.74" shape="905.35,2044.17 909.11,2043.23 912.05,2042.03 914.17,2040.59 915.46,2038.90"/>
    </edge>
    <edge id=":10567669407_1" function="internal">
        <lane id=":10567669407_1_0" index="0" disallow="tram rail_urban rail rail_electric rail_fast ship container cable_car subway aircraft wheelchair scooter drone" speed="27.78" length="11.50" shape="907.98,2047.47 909.82,2044.58 911.77,2042.93 913.69,2041.41 915.46,2038.90"/>
    </edge>
    <edge id=":10567689612_0" function="internal">
        <lane id=":10567689612_0_0" index="0" allow="pedestrian delivery bicycle" speed="7.39" length="6.41" shape="921.55,2134.02 921.00,2132.02 920.29,2130.45 919.44,2129.34 918.43,2128.66"/>
    </edge>
    <edge id=":10567689612_1" function="internal">
        <lane id=":10567689612_1_0" index="0" disallow="tram rail_urban rail rail_electric rail_fast ship container cable_car subway aircraft wheelchair scooter drone" speed="22.22" length="6.90" shape="924.80,2131.32 918.43,2128.66"/>
    </edge>
    <edge id=":10567689613_0" function="internal">
        <lane id=":10567689613_0_0" index="0" allow="pedestrian delivery bicycle" speed="5.61" length="5.50" shape="940.25,2138.07 939.02,2137.66 937.81,2137.77 936.62,2138.40 935.45,2139.55"/>
    </edge>
    <edge id=":10567689613_1" function="internal">
        <lane id=":10567689613_1_0" index="0" disallow="tram rail_urban rail rail_electric rail_fast ship container cable_car subway aircraft wheelchair scooter drone" speed="22.22" length="6.47" shape="940.25,2138.07 938.56,2137.16 937.38,2136.58 936.17,2136.06 934.40,2135.32"/>
    </edge>
    <edge id=":10567689614_0" function="internal">
        <lane id=":10567689614_0_0" index="0" disallow="tram rail_urban rail rail_electric rail_fast ship container cable_car subway aircraft wheelchair scooter drone" speed="25.00" length="3.03" shape="1019.60,2180.98 1016.91,2179.57"/>
    </edge>
    <edge id=":10567689614_1" function="internal">
        <lane id=":10567689614_1_0" index="0" disallow="tram rail_urban rail rail_electric rail_fast ship container cable_car subway aircraft wheelchair scooter drone" speed="27.78" length="2.90" shape="1021.05,2178.12 1018.45,2176.73"/>
        <lane id=":10567689614_1_1" index="1" disallow="tram rail_urban rail rail_electric rail_fast ship container cable_car subway aircraft wheelchair scooter drone" speed="27.78" length="2.90" shape="1022.49,2175.27 1019.98,2173.91"/>
    </edge>
    <edge id=":10698677325_0" function="internal">
        <lane id=":10698677325_0_0" index="0" allow="pedestrian delivery bicycle" speed="4.93" length="5.14" shape="773.41,1994.37 772.23,1993.57 771.11,1993.37 770.05,1993.79 769.05,1994.81"/>
    </edge>
    <edge id=":10698677325_1" function="internal">
        <lane id=":10698677325_1_0" index="0" disallow="tram rail_urban rail rail_electric rail_fast ship container cable_car subway aircraft wheelchair scooter drone" speed="27.78" length="9.44" shape="773.41,1994.37 766.44,1988.01"/>
        <lane id=":10698677325_1_1" index="1" disallow="tram rail_urban rail rail_electric rail_fast ship container cable_car subway aircraft wheelchair scooter drone" speed="27.78" length="9.44" shape="775.57,1992.01 768.60,1985.64"/>
    </edge>
    <edge id=":10698677325_3" function="internal">
        <lane id=":10698677325_3_0" index="0" allow="pedestrian delivery bicycle" speed="5.43" length="5.47" shape="766.46,1992.92 767.27,1991.51 767.53,1990.22 767.26,1989.06 766.44,1988.01"/>
    </edge>
    <edge id=":10698677327_0" function="internal">
        <lane id=":10698677327_0_0" index="0" allow="pedestrian delivery bicycle" speed="5.56" length="9.15" shape="627.98,1942.77 624.42,1951.20"/>
    </edge>
    <edge id=":10698677327_1" function="internal">
        <lane id=":10698677327_1_0" index="0" allow="pedestrian delivery bicycle" speed="5.56" length="9.52" shape="627.98,1942.77 627.20,1943.56 625.49,1944.43 622.86,1945.38 619.31,1946.40"/>
    </edge>
    <edge id=":10698677327_2" function="internal">
        <lane id=":10698677327_2_0" index="0" allow="pedestrian delivery bicycle" speed="5.56" length="5.59" shape="619.71,1943.01 620.89,1942.80 622.58,1942.52 624.17,1942.11 625.03,1941.53"/>
    </edge>
    <edge id=":10698677327_3" function="internal">
        <lane id=":10698677327_3_0" index="0" allow="pedestrian delivery bicycle" speed="5.56" length="13.69" shape="619.71,1943.01 623.44,1942.63 625.47,1943.87 625.80,1946.72 624.42,1951.20"/>
    </edge>
    <edge id=":10698677327_4" function="internal">
        <lane id=":10698677327_4_0" index="0" allow="pedestrian delivery bicycle" speed="4.62" length="6.06" shape="621.47,1949.96 622.07,1947.99 621.91,1946.75 620.99,1946.22 619.31,1946.40"/>
    </edge>
    <edge id=":10698677327_5" function="internal">
        <lane id=":10698677327_5_0" index="0" allow="pedestrian delivery bicycle" speed="5.56" length="9.15" shape="621.47,1949.96 625.03,1941.53"/>
    </edge>
    <edge id=":12245849462_0" function="internal">
        <lane id=":12245849462_0_0" index="0" disallow="tram rail_urban rail rail_electric rail_fast ship container cable_car subway aircraft wheelchair scooter drone" speed="20.93" length="6.24" shape="1314.86,2380.29 1313.93,2381.85 1313.60,2383.06 1313.44,2384.36 1313.04,2386.18"/>
    </edge>
    <edge id=":12245849463_0" function="internal">
        <lane id=":12245849463_0_0" index="0" disallow="tram rail_urban rail rail_electric rail_fast ship container cable_car subway aircraft wheelchair scooter drone" speed="27.78" length="5.17" shape="1301.00,2387.32 1303.96,2391.55"/>
        <lane id=":12245849463_0_1" index="1" disallow="tram rail_urban rail rail_electric rail_fast ship container cable_car subway aircraft wheelchair scooter drone" speed="27.78" length="5.17" shape="1298.38,2389.15 1301.34,2393.38"/>
    </edge>
    <edge id=":12245849464_0" function="internal">
        <lane id=":12245849464_0_0" index="0" disallow="tram rail_urban rail rail_electric rail_fast ship container cable_car subway aircraft wheelchair scooter drone" speed="27.78" length="5.26" shape="1291.21,2400.02 1288.20,2395.71"/>
        <lane id=":12245849464_0_1" index="1" disallow="tram rail_urban rail rail_electric rail_fast ship container cable_car subway aircraft wheelchair scooter drone" speed="27.78" length="5.26" shape="1293.84,2398.19 1290.82,2393.87"/>
    </edge>
    <edge id=":12245849469_0" function="internal">
        <lane id=":12245849469_0_0" index="0" disallow="tram rail_urban rail rail_electric rail_fast ship container cable_car subway aircraft wheelchair scooter drone" speed="22.22" length="5.59" shape="1292.08,2345.87 1293.63,2346.45 1294.72,2346.74 1295.84,2346.96 1297.45,2347.35"/>
    </edge>
    <edge id=":12245849471_0" function="internal">
        <lane id=":12245849471_0_0" index="0" disallow="tram rail_urban rail rail_electric rail_fast ship container cable_car subway aircraft wheelchair scooter drone" speed="27.78" length="7.15" shape="1045.04,2190.28 1043.00,2189.80 1041.42,2190.24 1039.84,2190.67 1037.80,2190.19"/>
        <lane id=":12245849471_0_1" index="1" disallow="tram rail_urban rail rail_electric rail_fast ship container cable_car subway aircraft wheelchair scooter drone" speed="27.78" length="7.15" shape="1046.49,2187.42 1044.45,2186.95 1042.87,2187.38 1041.28,2187.81 1039.24,2187.34"/>
        <lane id=":12245849471_0_2" index="2" disallow="tram rail_urban rail rail_electric rail_fast ship container cable_car subway aircraft wheelchair scooter drone" speed="27.78" length="7.15" shape="1046.49,2187.42 1040.69,2184.49"/>
    </edge>
    <edge id=":12245849472_0" function="internal">
        <lane id=":12245849472_0_0" index="0" disallow="tram rail_urban rail rail_electric rail_fast ship container cable_car subway aircraft wheelchair scooter drone" speed="27.78" length="5.29" shape="1047.22,2176.29 1051.83,2178.88"/>
        <lane id=":12245849472_0_1" index="1" disallow="tram rail_urban rail rail_electric rail_fast ship container cable_car subway aircraft wheelchair scooter drone" speed="27.78" length="5.29" shape="1045.65,2179.08 1050.27,2181.67"/>
    </edge>
    <edge id=":12245849483_0" function="internal">
        <lane id=":12245849483_0_0" index="0" disallow="tram rail_urban rail rail_electric rail_fast ship container cable_car subway aircraft wheelchair scooter drone" speed="8.51" length="4.81" shape="890.14,2059.71 891.52,2059.75 892.44,2059.47 893.31,2058.91 894.51,2058.13"/>
    </edge>
    <edge id=":12245849487_0" function="internal">
        <lane id=":12245849487_0_0" index="0" disallow="tram rail_urban rail rail_electric rail_fast ship container cable_car subway aircraft wheelchair scooter drone" speed="22.22" length="5.56" shape="872.06,2101.50 872.05,2095.94"/>
    </edge>
    <edge id=":12245849492_0" function="internal">
        <lane id=":12245849492_0_0" index="0" disallow="tram rail_urban rail rail_electric rail_fast ship container cable_car subway aircraft wheelchair scooter drone" speed="22.22" length="5.86" shape="904.94,2123.35 899.13,2124.00"/>
    </edge>
    <edge id=":12245849494_0" function="internal">
        <lane id=":12245849494_0_0" index="0" disallow="tram rail_urban rail rail_electric rail_fast ship container cable_car subway aircraft wheelchair scooter drone" speed="22.22" length="5.03" shape="934.58,2082.37 936.30,2087.10"/>
    </edge>
    <edge id=":135195291#5-AddedOffRampNode_0" function="internal">
        <lane id=":135195291#5-AddedOffRampNode_0_0" index="0" disallow="tram rail_urban rail rail_electric rail_fast ship container cable_car subway aircraft wheelchair scooter drone" speed="27.78" length="8.27" shape="1173.35,2255.86 1175.62,2256.95 1177.51,2257.01 1179.40,2257.06 1181.66,2258.15"/>
        <lane id=":135195291#5-AddedOffRampNode_0_1" index="1" disallow="tram rail_urban rail rail_electric rail_fast ship container cable_car subway aircraft wheelchair scooter drone" speed="27.78" length="8.27" shape="1173.35,2255.86 1179.72,2260.70"/>
        <lane id=":135195291#5-AddedOffRampNode_0_2" index="2" disallow="tram rail_urban rail rail_electric rail_fast ship container cable_car subway aircraft wheelchair scooter drone" speed="27.78" length="8.27" shape="1171.42,2258.41 1177.79,2263.25"/>
    </edge>
    <edge id=":136333548#0-AddedOffRampNode_0" function="internal">
        <lane id=":136333548#0-AddedOffRampNode_0_0" index="0" disallow="tram rail_urban rail rail_electric rail_fast ship container cable_car subway aircraft wheelchair scooter drone" speed="27.78" length="8.40" shape="1422.77,2323.05 1420.72,2324.50 1419.76,2326.13 1418.80,2327.76 1416.75,2329.22"/>
        <lane id=":136333548#0-AddedOffRampNode_0_1" index="1" disallow="tram rail_urban rail rail_electric rail_fast ship container cable_car subway aircraft wheelchair scooter drone" speed="27.78" length="8.40" shape="1422.77,2323.05 1415.46,2326.30"/>
    </edge>
    <edge id=":136338240#1-AddedOffRampNode_0" function="internal">
        <lane id=":136338240#1-AddedOffRampNode_0_0" index="0" disallow="tram rail_urban rail rail_electric rail_fast ship container cable_car subway aircraft wheelchair scooter drone" speed="27.78" length="8.40" shape="970.47,1951.80 969.73,1954.20 969.97,1956.08 970.20,1957.95 969.46,1960.35"/>
        <lane id=":136338240#1-AddedOffRampNode_0_1" index="1" disallow="tram rail_urban rail rail_electric rail_fast ship container cable_car subway aircraft wheelchair scooter drone" speed="27.78" length="8.40" shape="970.47,1951.80 966.65,1958.83"/>
    </edge>
    <edge id=":1477869248_0" function="internal">
        <lane id=":1477869248_0_0" index="0" disallow="tram rail_urban rail rail_electric rail_fast ship container cable_car subway aircraft wheelchair scooter drone" speed="7.98" length="3.96" shape="904.47,2052.40 905.47,2051.80 906.09,2051.28 906.55,2050.60 907.05,2049.55"/>
    </edge>
    <edge id=":1477869248_1" function="internal">
        <lane id=":1477869248_1_0" index="0" disallow="tram rail_urban rail rail_electric rail_fast ship container cable_car subway aircraft wheelchair scooter drone" speed="27.78" length="4.04" shape="908.32,2054.55 909.97,2050.86"/>
    </edge>
    <edge id=":1477869288_0" function="internal">
        <lane id=":1477869288_0_0" index="0" disallow="tram rail_urban rail rail_electric rail_fast ship container cable_car subway aircraft wheelchair scooter drone" speed="17.67" length="3.51" shape="930.37,2044.75 930.16,2045.76 930.07,2046.47 930.09,2047.19 930.20,2048.22"/>
    </edge>
    <edge id=":1477869288_1" function="internal">
        <lane id=":1477869288_1_0" index="0" disallow="tram rail_urban rail rail_electric rail_fast ship container cable_car subway aircraft wheelchair scooter drone" speed="27.78" length="3.34" shape="927.24,2044.07 926.40,2047.31"/>
    </edge>
    <edge id=":1477869368_0" function="internal">
        <lane id=":1477869368_0_0" index="0" disallow="tram rail_urban rail rail_electric rail_fast ship container cable_car subway aircraft wheelchair scooter drone" speed="27.78" length="7.85" shape="876.06,2084.01 870.24,2078.73"/>
        <lane id=":1477869368_0_1" index="1" disallow="tram rail_urban rail rail_electric rail_fast ship container cable_car subway aircraft wheelchair scooter drone" speed="27.78" length="7.85" shape="878.21,2081.64 872.40,2076.37"/>
    </edge>
    <edge id=":1477869368_2" function="internal">
        <lane id=":1477869368_2_0" index="0" disallow="tram rail_urban rail rail_electric rail_fast ship container cable_car subway aircraft wheelchair scooter drone" speed="8.71" length="7.45" shape="872.07,2085.78 871.96,2083.32 871.62,2081.33 871.05,2079.80 870.24,2078.73"/>
    </edge>
    <edge id=":1477869801_0" function="internal">
        <lane id=":1477869801_0_0" index="0" disallow="tram rail_urban rail rail_electric rail_fast ship container cable_car subway aircraft wheelchair scooter drone" speed="6.07" length="9.07" shape="548.68,1770.37 546.64,1768.81 544.72,1768.41 542.91,1769.19 541.23,1771.14"/>
    </edge>
    <edge id=":1477869801_1" function="internal">
        <lane id=":1477869801_1_0" index="0" disallow="tram rail_urban rail rail_electric rail_fast ship container cable_car subway aircraft wheelchair scooter drone" speed="27.78" length="14.54" shape="548.68,1770.37 538.55,1759.92"/>
        <lane id=":1477869801_1_1" index="1" disallow="tram rail_urban rail rail_electric rail_fast ship container cable_car subway aircraft wheelchair scooter drone" speed="27.78" length="14.54" shape="550.97,1768.13 540.86,1757.71"/>
    </edge>
    <edge id=":1477869801_3" function="internal">
        <lane id=":1477869801_3_0" index="0" disallow="tram rail_urban rail rail_electric rail_fast ship container cable_car subway aircraft wheelchair scooter drone" speed="7.57" length="10.32" shape="538.54,1769.41 539.91,1766.68 540.36,1764.19 539.91,1761.94 538.55,1759.92"/>
    </edge>
    <edge id=":1477869861_0" function="internal">
        <lane id=":1477869861_0_0" index="0" disallow="tram rail_urban rail rail_electric rail_fast ship container cable_car subway aircraft wheelchair scooter drone" speed="9.42" length="3.78" shape="871.62,2056.37 872.53,2057.01 873.21,2057.38 873.96,2057.59 875.06,2057.75"/>
    </edge>
    <edge id=":1477869861_1" function="internal">
        <lane id=":1477869861_1_0" index="0" disallow="tram rail_urban rail rail_electric rail_fast ship container cable_car subway aircraft wheelchair scooter drone" speed="27.78" length="3.73" shape="869.72,2058.94 872.72,2061.22"/>
        <lane id=":1477869861_1_1" index="1" disallow="tram rail_urban rail rail_electric rail_fast ship container cable_car subway aircraft wheelchair scooter drone" speed="27.78" length="3.73" shape="867.81,2061.51 870.75,2063.74"/>
    </edge>
    <edge id=":1477869865_0" function="internal">
        <lane id=":1477869865_0_0" index="0" disallow="tram rail_urban rail rail_electric rail_fast ship container cable_car subway aircraft wheelchair scooter drone" speed="6.47" length="9.03" shape="815.37,2005.01 814.00,2007.08 813.63,2009.08 814.27,2011.01 815.90,2012.87"/>
    </edge>
    <edge id=":1477869865_1" function="internal">
        <lane id=":1477869865_1_0" index="0" disallow="tram rail_urban rail rail_electric rail_fast ship container cable_car subway aircraft wheelchair scooter drone" speed="7.35" length="11.79" shape="802.89,2005.80 805.10,2007.00 807.51,2006.92 810.14,2005.55 812.97,2002.88"/>
    </edge>
    <edge id=":1477869865_2" function="internal">
        <lane id=":1477869865_2_0" index="0" disallow="tram rail_urban rail rail_electric rail_fast ship container cable_car subway aircraft wheelchair scooter drone" speed="27.78" length="14.51" shape="802.89,2005.80 813.82,2015.31"/>
        <lane id=":1477869865_2_1" index="1" disallow="tram rail_urban rail rail_electric rail_fast ship container cable_car subway aircraft wheelchair scooter drone" speed="27.78" length="14.51" shape="800.77,2008.19 811.74,2017.74"/>
    </edge>
    <edge id=":1484934714_0" function="internal">
        <lane id=":1484934714_0_0" index="0" disallow="tram rail_urban rail rail_electric rail_fast ship container cable_car subway aircraft wheelchair scooter drone" speed="27.78" length="0.10" shape="1534.04,2798.83 1533.98,2798.76"/>
        <lane id=":1484934714_0_1" index="1" disallow="tram rail_urban rail rail_electric rail_fast ship container cable_car subway aircraft wheelchair scooter drone" speed="27.78" length="0.10" shape="1536.50,2796.79 1536.56,2796.86"/>
    </edge>
    <edge id=":1484934730_0" function="internal">
        <lane id=":1484934730_0_0" index="0" disallow="tram rail_urban rail rail_electric rail_fast ship container cable_car subway aircraft wheelchair scooter drone" speed="11.80" length="8.03" shape="943.18,2106.04 943.87,2108.34 944.34,2109.99 945.14,2111.39 946.85,2112.93"/>
    </edge>
    <edge id=":1484934730_1" function="internal">
        <lane id=":1484934730_1_0" index="0" disallow="tram rail_urban rail rail_electric rail_fast ship container cable_car subway aircraft wheelchair scooter drone" speed="27.78" length="8.01" shape="940.06,2108.52 946.85,2112.93"/>
        <lane id=":1484934730_1_1" index="1" disallow="tram rail_urban rail rail_electric rail_fast ship container cable_car subway aircraft wheelchair scooter drone" speed="27.78" length="8.01" shape="938.31,2111.20 944.96,2115.51"/>
    </edge>
    <edge id=":1484934777_0" function="internal">
        <lane id=":1484934777_0_0" index="0" disallow="tram rail_urban rail rail_electric rail_fast ship container cable_car subway aircraft wheelchair scooter drone" speed="6.67" length="9.35" shape="980.09,2129.17 978.98,2131.56 978.84,2133.71 979.68,2135.62 981.49,2137.30"/>
    </edge>
    <edge id=":1484934777_1" function="internal">
        <lane id=":1484934777_1_0" index="0" disallow="tram rail_urban rail rail_electric rail_fast ship container cable_car subway aircraft wheelchair scooter drone" speed="6.32" length="9.04" shape="969.75,2128.79 971.93,2130.02 973.93,2130.21 975.75,2129.35 977.39,2127.45"/>
    </edge>
    <edge id=":1484934777_2" function="internal">
        <lane id=":1484934777_2_0" index="0" disallow="tram rail_urban rail rail_electric rail_fast ship container cable_car subway aircraft wheelchair scooter drone" speed="27.78" length="14.60" shape="969.75,2128.79 981.49,2137.30"/>
        <lane id=":1484934777_2_1" index="1" disallow="tram rail_urban rail rail_electric rail_fast ship container cable_car subway aircraft wheelchair scooter drone" speed="27.78" length="14.60" shape="967.79,2131.32 979.69,2139.95"/>
    </edge>
    <edge id=":1484969327_0" function="internal">
        <lane id=":1484969327_0_0" index="0" disallow="tram rail_urban rail rail_electric rail_fast ship container cable_car subway aircraft wheelchair scooter drone" speed="27.78" length="0.30" shape="1572.35,2820.83 1572.53,2821.05"/>
        <lane id=":1484969327_0_1" index="1" disallow="tram rail_urban rail rail_electric rail_fast ship container cable_car subway aircraft wheelchair scooter drone" speed="27.78" length="0.30" shape="1569.89,2822.88 1570.09,2823.11"/>
    </edge>
    <edge id=":1484969412_0" function="internal">
        <lane id=":1484969412_0_0" index="0" disallow="tram rail_urban rail rail_electric rail_fast ship container cable_car subway aircraft wheelchair scooter drone" speed="27.78" length="0.35" shape="1561.98,2832.51 1561.87,2832.40 1561.80,2832.32 1561.73,2832.24 1561.63,2832.12"/>
        <lane id=":1484969412_0_1" index="1" disallow="tram rail_urban rail rail_electric rail_fast ship container cable_car subway aircraft wheelchair scooter drone" speed="27.78" length="0.35" shape="1564.21,2830.21 1564.17,2830.17 1564.15,2830.15 1564.13,2830.12 1564.09,2830.08"/>
    </edge>
    <edge id=":1489194779_0" function="internal">
        <lane id=":1489194779_0_0" index="0" disallow="tram rail_urban rail rail_electric rail_fast ship container cable_car subway aircraft wheelchair scooter drone" speed="22.22" length="25.86" shape="862.42,2136.55 857.98,2139.68 852.12,2144.33 846.35,2149.12 842.18,2152.63"/>
    </edge>
    <edge id=":1489194779_1" function="internal">
        <lane id=":1489194779_1_0" index="0" disallow="tram rail_urban rail rail_electric rail_fast ship container cable_car subway aircraft wheelchair scooter drone" speed="5.92" length="6.20" shape="862.42,2136.55 857.74,2138.96 856.81,2139.09"/>
    </edge>
    <edge id=":1489194779_4" function="internal">
        <lane id=":1489194779_4_0" index="0" disallow="tram rail_urban rail rail_electric rail_fast ship container cable_car subway aircraft wheelchair scooter drone" speed="5.92" length="7.81" shape="856.81,2139.09 855.52,2139.28 855.76,2137.50 858.44,2133.63"/>
    </edge>
    <edge id=":1489194779_2" function="internal">
        <lane id=":1489194779_2_0" index="0" disallow="tram rail_urban rail rail_electric rail_fast ship container cable_car subway aircraft wheelchair scooter drone" speed="22.22" length="24.57" shape="840.13,2150.18 843.34,2147.02 847.13,2142.64 851.38,2137.38 855.94,2131.63"/>