<?xml version="1.0" encoding="UTF-8"?>
<routes>
  <!-- RANDOM variable demand on the faithful Ikeja junction (seed=7). -->
  <vType id="car" accel="2.6" decel="4.5" length="5.0" minGap="2.5" maxSpeed="13.9" departLane="random" lcImpatience="0.8"/>
  <flow id="r0" type="car" from="610011092#2" to="135617573#1" begin="0" end="90" vehsPerHour="450" departSpeed="max"/>
  <flow id="r1" type="car" from="134404792#3" to="135195291#2" begin="0" end="90" vehsPerHour="700" departSpeed="max"/>
  <flow id="r2" type="car" from="136338240#2" to="134404770#4" begin="0" end="90" vehsPerHour="100" departSpeed="max"/>
  <flow id="r3" type="car" from="135617577#1" to="134404795#1" begin="0" end="90" vehsPerHour="100" departSpeed="max"/>
  <flow id="r4" type="car" from="610011092#2" to="135617573#1" begin="90" end="180" vehsPerHour="100" departSpeed="max"/>
  <flow id="r5" type="car" from="134404792#3" to="135195291#2" begin="90" end="180" vehsPerHour="1644" departSpeed="max"/>
  <flow id="r6" type="car" from="136338240#2" to="134404770#4" begin="90" end="180" vehsPerHour="1292" departSpeed="max"/>
  <flow id="r7" type="car" from="135617577#1" to="134404795#1" begin="90" end="180" vehsPerHour="1000" departSpeed="max"/>
  <flow id="r8" type="car" from="610011092#2" to="135617573#1" begin="180" end="270" vehsPerHour="1428" departSpeed="max"/>
  <flow id="r9" type="car" from="134404792#3" to="135195291#2" begin="180" end="270" vehsPerHour="1400" departSpeed="max"/>
  <flow id="r10" type="car" from="136338240#2" to="134404770#4" begin="180" end="270" vehsPerHour="100" departSpeed="max"/>
  <flow id="r11" type="car" from="135617577#1" to="134404795#1" begin="180" end="270" vehsPerHour="1426" departSpeed="max"/>
  <flow id="r12" type="car" from="610011092#2" to="135617573#1" begin="270" end="360" vehsPerHour="100" departSpeed="max"/>
  <flow id="r13" type="car" from="134404792#3" to="135195291#2" begin="270" end="360" vehsPerHour="250" departSpeed="max"/>
  <flow id="r14" type="car" from="136338240#2" to="134404770#4" begin="270" end="360" vehsPerHour="250" departSpeed="max"/>
  <flow id="r15" type="car" from="135617577#1" to="134404795#1" begin="270" end="360" vehsPerHour="1000" departSpeed="max"/>
  <flow id="r16" type="car" from="610011092#2" to="135617573#1" begin="360" end="450" vehsPerHour="1795" departSpeed="max"/>
  <flow id="r17" type="car" from="134404792#3" to="135195291#2" begin="360" end="450" vehsPerHour="1000" departSpeed="max"/>
  <flow id="r18" type="car" from="136338240#2" to="134404770#4" begin="360" end="450" vehsPerHour="1264" departSpeed="max"/>
  <flow id="r19" type="car" from="135617577#1" to="134404795#1" begin="360" end="450" vehsPerHour="1410" departSpeed="max"/>
  <flow id="r20" type="car" from="610011092#2" to="135617573#1" begin="450" end="540" vehsPerHour="700" departSpeed="max"/>
  <flow id="r21" type="car" from="134404792#3" to="135195291#2" begin="450" end="540" vehsPerHour="700" departSpeed="max"/>
  <flow id="r22" type="car" from="136338240#2" to="134404770#4" begin="450" end="540" vehsPerHour="700" departSpeed="max"/>
  <flow id="r23" type="car" from="135617577#1" to="134404795#1" begin="450" end="540" vehsPerHour="700" departSpeed="max"/>
  <flow id="r24" type="car" from="610011092#2" to="135617573#1" begin="540" end="630" vehsPerHour="250" departSpeed="max"/>
  <flow id="r25" type="car" from="134404792#3" to="135195291#2" begin="540" end="630" vehsPerHour="1400" departSpeed="max"/>
  <flow id="r26" type="car" from="136338240#2" to="134404770#4" begin="540" end="630" vehsPerHour="100" departSpeed="max"/>
  <flow id="r27" type="car" from="135617577#1" to="134404795#1" begin="540" end="630" vehsPerHour="1000" departSpeed="max"/>
  <flow id="r28" type="car" from="610011092#2" to="135617573#1" begin="630" end="720" vehsPerHour="450" departSpeed="max"/>
  <flow id="r29" type="car" from="134404792#3" to="135195291#2" begin="630" end="720" vehsPerHour="450" departSpeed="max"/>
  <flow id="r30" type="car" from="136338240#2" to="134404770#4" begin="630" end="720" vehsPerHour="1628" departSpeed="max"/>
  <flow id="r31" type="car" from="135617577#1" to="134404795#1" begin="630" end="720" vehsPerHour="250" departSpeed="max"/>
  <flow id="r32" type="car" from="610011092#2" to="135617573#1" begin="720" end="810" vehsPerHour="250" departSpeed="max"/>
  <flow id="r33" type="car" from="134404792#3" to="135195291#2" begin="720" end="810" vehsPerHour="1279" departSpeed="max"/>
  <flow id="r34" type="car" from="136338240#2" to="134404770#4" begin="720" end="810" vehsPerHour="1000" departSpeed="max"/>
  <flow id="r35" type="car" from="135617577#1" to="134404795#1" begin="720" end="810" vehsPerHour="450" departSpeed="max"/>
  <flow id="r36" type="car" from="610011092#2" to="135617573#1" begin="810" end="900" vehsPerHour="450" departSpeed="max"/>
  <flow id="r37" type="car" from="134404792#3" to="135195291#2" begin="810" end="900" vehsPerHour="1000" departSpeed="max"/>
  <flow id="r38" type="car" from="136338240#2" to="134404770#4" begin="810" end="900" vehsPerHour="100" departSpeed="max"/>
  <flow id="r39" type="car" from="135617577#1" to="134404795#1" begin="810" end="900" vehsPerHour="450" departSpeed="max"/>
  <flow id="r40" type="car" from="610011092#2" to="135617573#1" begin="900" end="990" vehsPerHour="1517" departSpeed="max"/>
  <flow id="r41" type="car" from="134404792#3" to="135195291#2" begin="900" end="990" vehsPerHour="1400" departSpeed="max"/>
  <flow id="r42" type="car" from="136338240#2" to="134404770#4" begin="900" end="990" vehsPerHour="1400" departSpeed="max"/>
  <flow id="r43" type="car" from="135617577#1" to="134404795#1" begin="900" end="990" vehsPerHour="450" departSpeed="max"/>
  <flow id="r44" type="car" from="610011092#2" to="135617573#1" begin="990" end="1080" vehsPerHour="1400" departSpeed="max"/>
  <flow id="r45" type="car" from="134404792#3" to="135195291#2" begin="990" end="1080" vehsPerHour="700" departSpeed="max"/>
  <flow id="r46" type="car" from="136338240#2" to="134404770#4" begin="990" end="1080" vehsPerHour="1260" departSpeed="max"/>
  <flow id="r47" type="car" from="135617577#1" to="134404795#1" begin="990" end="1080" vehsPerHour="250" departSpeed="max"/>
  <flow id="r48" type="car" from="610011092#2" to="135617573#1" begin="1080" end="1170" vehsPerHour="250" departSpeed="max"/>
  <flow id="r49" type="car" from="134404792#3" to="135195291#2" begin="1080" end="1170" vehsPerHour="700" departSpeed="max"/>
  <flow id="r50" type="car" from="136338240#2" to="134404770#4" begin="1080" end="1170" vehsPerHour="1659" departSpeed="max"/>
  <flow id="r51" type="car" from="135617577#1" to="134404795#1" begin="1080" end="1170" vehsPerHour="700" departSpeed="max"/>
  <flow id="r52" type="car" from="610011092#2" to="135617573#1" begin="1170" end="1260" vehsPerHour="250" departSpeed="max"/>
  <flow id="r53" type="car" from="134404792#3" to="135195291#2" begin="1170" end="1260" vehsPerHour="1000" departSpeed="max"/>
  <flow id="r54" type="car" from="136338240#2" to="134404770#4" begin="1170" end="1260" vehsPerHour="700" departSpeed="max"/>
  <flow id="r55" type="car" from="135617577#1" to="134404795#1" begin="1170" end="1260" vehsPerHour="1400" departSpeed="max"/>
  <flow id="r56" type="car" from="610011092#2" to="135617573#1" begin="1260" end="1350" vehsPerHour="1380" departSpeed="max"/>
  <flow id="r57" type="car" from="134404792#3" to="135195291#2" begin="1260" end="1350" vehsPerHour="250" departSpeed="max"/>
  <flow id="r58" type="car" from="136338240#2" to="134404770#4" begin="1260" end="1350" vehsPerHour="1386" departSpeed="max"/>
  <flow id="r59" type="car" from="135617577#1" to="134404795#1" begin="1260" end="1350" vehsPerHour="450" departSpeed="max"/>
  <flow id="r60" type="car" from="610011092#2" to="135617573#1" begin="1350" end="1440" vehsPerHour="250" departSpeed="max"/>
  <flow id="r61" type="car" from="134404792#3" to="135195291#2" begin="1350" end="1440" vehsPerHour="450" departSpeed="max"/>
  <flow id="r62" type="car" from="136338240#2" to="134404770#4" begin="1350" end="1440" vehsPerHour="450" departSpeed="max"/>
  <flow id="r63" type="car" from="135617577#1" to="134404795#1" begin="1350" end="1440" vehsPerHour="1400" departSpeed="max"/>
  <flow id="r64" type="car" from="610011092#2" to="135617573#1" begin="1440" end="1530" vehsPerHour="1000" departSpeed="max"/>
  <flow id="r65" type="car" from="134404792#3" to="135195291#2" begin="1440" end="1530" vehsPerHour="1772" departSpeed="max"/>
  <flow id="r66" type="car" from="136338240#2" to="134404770#4" begin="1440" end="1530" vehsPerHour="700" departSpeed="max"/>
  <flow id="r67" type="car" from="135617577#1" to="134404795#1" begin="1440" end="1530" vehsPerHour="1610" departSpeed="max"/>
  <flow id="r68" type="car" from="610011092#2" to="135617573#1" begin="1530" end="1620" vehsPerHour="1413" departSpeed="max"/>
  <flow id="r69" type="car" from="134404792#3" to="135195291#2" begin="1530" end="1620" vehsPerHour="1548" departSpeed="max"/>
  <flow id="r70" type="car" from="136338240#2" to="134404770#4" begin="1530" end="1620" vehsPerHour="1200" departSpeed="max"/>
  <flow id="r71" type="car" from="135617577#1" to="134404795#1" begin="1530" end="1620" vehsPerHour="1303" departSpeed="max"/>
  <flow id="r72" type="car" from="610011092#2" to="135617573#1" begin="1620" end="1710" vehsPerHour="450" departSpeed="max"/>
  <flow id="r73" type="car" from="134404792#3" to="135195291#2" begin="1620" end="1710" vehsPerHour="100" departSpeed="max"/>
  <flow id="r74" type="car" from="136338240#2" to="134404770#4" begin="1620" end="1710" vehsPerHour="1000" departSpeed="max"/>
  <flow id="r75" type="car" from="135617577#1" to="134404795#1" begin="1620" end="1710" vehsPerHour="1400" departSpeed="max"/>
  <flow id="r76" type="car" from="610011092#2" to="135617573#1" begin="1710" end="1800" vehsPerHour="450" departSpeed="max"/>
  <flow id="r77" type="car" from="134404792#3" to="135195291#2" begin="1710" end="1800" vehsPerHour="1699" departSpeed="max"/>
  <flow id="r78" type="car" from="136338240#2" to="134404770#4" begin="1710" end="1800" vehsPerHour="700" departSpeed="max"/>
  <flow id="r79" type="car" from="135617577#1" to="134404795#1" begin="1710" end="1800" vehsPerHour="1304" departSpeed="max"/>
</routes>
