<edges>
  <edge id="136338240#0" numLanes="2"/>
  <edge id="136338240#1" numLanes="2"/>
  <edge id="136338240#2" numLanes="2"/>
  <edge id="135617577#0" numLanes="2"/>
  <edge id="135617577#1" numLanes="2"/>
  <edge id="135617573#1" numLanes="2"/>
  <edge id="135617573#2" numLanes="2"/>
  <edge id="134404795#1" numLanes="2"/>
  <edge id="134404795#2" numLanes="2"/>
  <edge id="134404795#3" numLanes="2"/>
</edges>
