<?xml version="1.0" encoding="UTF-8"?>

<!-- generated on 2026-06-04 19:33:42.681329 by randomTrips.py v1_24_0+0000-b72eb3fabc8
<configuration>
    <net-file value="lagos.net.xml"/>
    <output-trip-file value="trips_calib.trips.xml"/>
    <route-file value="lagos_calib.rou.xml"/>
    <fringe-factor value="10"/>
    <period value="3.5"/>
</configuration>
-->

<routes xmlns:xsi="http://www.w3.org/2001/XMLSchema-instance" xsi:noNamespaceSchemaLocation="http://sumo.dlr.de/xsd/routes_file.xsd">
    <trip id="0" depart="0.00" from="136338240#1.156" to="-135617580#6"/>
    <trip id="1" depart="3.50" from="134404792#2" to="134404770#5"/>
    <trip id="2" depart="7.00" from="610011092#1.11" to="135617577#1"/>
    <trip id="3" depart="10.50" from="135617580#6" to="-135617580#6"/>
    <trip id="4" depart="14.00" from="134404792#2" to="135195291#4"/>
    <trip id="5" depart="17.50" from="136338240#1.156" to="135195291#4"/>
    <trip id="6" depart="21.00" from="134404792#2" to="135195291#4"/>
    <trip id="7" depart="24.50" from="610011092#1.11" to="-135617580#6"/>
    <trip id="8" depart="28.00" from="610011092#1.11" to="136182587#0"/>
    <trip id="9" depart="31.50" from="624281145#0" to="134404795#2"/>
    <trip id="10" depart="35.00" from="610011092#2" to="135195291#4"/>
    <trip id="11" depart="38.50" from="610011092#1.11" to="136182587#0"/>
    <trip id="12" depart="42.00" from="135617573#2" to="135195291#4"/>
    <trip id="13" depart="45.50" from="610011092#1.11" to="135195291#4"/>
    <trip id="14" depart="49.00" from="624281141#0" to="135195291#4"/>
    <trip id="15" depart="52.50" from="610011092#1.11" to="-135617580#6"/>
    <trip id="16" depart="56.00" from="134404792#2" to="134404770#5"/>
    <trip id="17" depart="59.50" from="136338240#1.156" to="134404795#2"/>
    <trip id="18" depart="63.00" from="135617573#2" to="134404770#5"/>
    <trip id="19" depart="66.50" from="134404792#2" to="624281144#1"/>
    <trip id="20" depart="70.00" from="136338240#1.156" to="135195291#4"/>
    <trip id="21" depart="73.50" from="134404792#2" to="136182587#0"/>
    <trip id="22" depart="77.00" from="134404792#2" to="134404795#2"/>
    <trip id="23" depart="80.50" from="624281145#3" to="135617573#1"/>
    <trip id="24" depart="84.00" from="136338240#1.156" to="135617577#1"/>
    <trip id="25" depart="87.50" from="610011092#1.11" to="136182587#0"/>
    <trip id="26" depart="91.00" from="134404792#2" to="-135617580#6"/>
    <trip id="27" depart="94.50" from="134404792#2" to="624281144#1"/>
    <trip id="28" depart="98.00" from="136338240#1.156" to="134404795#2"/>
    <trip id="29" depart="101.50" from="624281142#1" to="134404795#2"/>
    <trip id="30" depart="105.00" from="134404792#2" to="134404770#5"/>
    <trip id="31" depart="108.50" from="136338240#1.156" to="134404770#5"/>
    <trip id="32" depart="112.00" from="135617577#1" to="134404770#5"/>
    <trip id="33" depart="115.50" from="624281145#3" to="135195291#4"/>
    <trip id="34" depart="119.00" from="-136182587#0" to="135195291#4"/>
    <trip id="35" depart="122.50" from="610011092#1.11" to="134404795#2"/>
    <trip id="36" depart="126.00" from="624281145#3" to="135195291#4"/>
    <trip id="37" depart="129.50" from="-136182587#0" to="136182587#0"/>
    <trip id="38" depart="133.00" from="136338240#1.156" to="135195291#4"/>
    <trip id="39" depart="136.50" from="134404792#2" to="135617573#1"/>
    <trip id="40" depart="140.00" from="135617580#6" to="134404770#5"/>
    <trip id="41" depart="143.50" from="134404792#3" to="135617573#1"/>
    <trip id="42" depart="147.00" from="136338240#1.156" to="134404770#4"/>
    <trip id="43" depart="150.50" from="610011092#1.11" to="135195291#4"/>
    <trip id="44" depart="154.00" from="610011092#1.11" to="135195291#4"/>
    <trip id="45" depart="157.50" from="134404792#3" to="-135617580#6"/>
    <trip id="46" depart="161.00" from="-136182587#0" to="136182587#0"/>
    <trip id="47" depart="164.50" from="610011092#1.11" to="-135617580#6"/>
    <trip id="48" depart="168.00" from="135617580#6" to="135195291#4"/>
    <trip id="49" depart="171.50" from="135617580#6" to="134404770#5"/>
    <trip id="50" depart="175.00" from="135617580#6" to="136182587#0"/>
    <trip id="51" depart="178.50" from="134404792#2" to="134404795#1"/>
    <trip id="52" depart="182.00" from="624281145#3" to="135617573#2"/>
    <trip id="53" depart="185.50" from="135617580#6" to="135195291#4"/>
    <trip id="54" depart="189.00" from="135195291#3" to="135195291#4"/>
    <trip id="55" depart="192.50" from="134404792#2" to="134404770#5"/>
    <trip id="56" depart="196.00" from="-136182587#0" to="135195291#4"/>
    <trip id="57" depart="199.50" from="134404792#2" to="624281142#1"/>
    <trip id="58" depart="203.00" from="134404792#2" to="135617577#0"/>
    <trip id="59" depart="206.50" from="134404792#2" to="-135617580#6"/>
    <trip id="60" depart="210.00" from="135617580#6" to="136182587#0"/>
    <trip id="61" depart="213.50" from="610011092#1.11" to="134404770#5"/>
    <trip id="62" depart="217.00" from="135617580#6" to="135195291#2"/>
    <trip id="63" depart="220.50" from="610011092#1.11" to="135617577#0"/>
    <trip id="64" depart="224.00" from="624281145#2" to="-135617580#6"/>
    <trip id="65" depart="227.50" from="135617577#1" to="134404795#2"/>
    <trip id="66" depart="231.00" from="134404792#2" to="134404795#2"/>
    <trip id="67" depart="234.50" from="135617580#6" to="134404770#5"/>
    <trip id="68" depart="238.00" from="134404792#2" to="624281144#0"/>
    <trip id="69" depart="241.50" from="136338240#1.156" to="-135617580#6"/>
    <trip id="70" depart="245.00" from="624281145#1" to="624281144#0"/>
    <trip id="71" depart="248.50" from="610011092#2" to="134404770#5"/>
    <trip id="72" depart="252.00" from="135617580#6" to="134404770#5"/>
    <trip id="73" depart="255.50" from="135617577#1" to="-135617580#6"/>
    <trip id="74" depart="259.00" from="134404792#2" to="136182587#0"/>
    <trip id="75" depart="262.50" from="135617580#6" to="134404795#2"/>
    <trip id="76" depart="266.00" from="624281145#0" to="624281145#3"/>
    <trip id="77" depart="269.50" from="136338240#1.156" to="136182587#0"/>
    <trip id="78" depart="273.00" from="624281145#1" to="135195291#4"/>
    <trip id="79" depart="276.50" from="135617580#6" to="136182587#0"/>
    <trip id="80" depart="280.00" from="-136182587#0" to="135195291#4"/>
    <trip id="81" depart="283.50" from="136338240#1.156" to="135617577#0"/>
    <trip id="82" depart="287.00" from="134404792#2" to="-135617580#6"/>
    <trip id="83" depart="290.50" from="136338240#1.156" to="135195291#4"/>
    <trip id="84" depart="294.00" from="135617580#6" to="135195291#4"/>
    <trip id="85" depart="297.50" from="135617580#6" to="624281144#1"/>
    <trip id="86" depart="301.00" from="134404792#2" to="136182587#0"/>
    <trip id="87" depart="304.50" from="134404792#2" to="134404795#2"/>
    <trip id="88" depart="308.00" from="624281145#3" to="624281145#3"/>
    <trip id="89" depart="311.50" from="134404792#2" to="624281144#1"/>
    <trip id="90" depart="315.00" from="624281141#1" to="624281141#1"/>
    <trip id="91" depart="318.50" from="135617573#2" to="134404770#5"/>
    <trip id="92" depart="322.00" from="610011092#1.11" to="136182587#0"/>
    <trip id="93" depart="325.50" from="136338240#1.156" to="-135617580#6"/>
    <trip id="94" depart="329.00" from="136338240#1.156" to="624281144#1"/>
    <trip id="95" depart="332.50" from="-136182587#0" to="135195291#4"/>
    <trip id="96" depart="336.00" from="134404792#2" to="135195291#4"/>
    <trip id="97" depart="339.50" from="610011092#1.11" to="134404770#5"/>
    <trip id="98" depart="343.00" from="136338240#1.156" to="134404770#5"/>
    <trip id="99" depart="346.50" from="610011092#2" to="-135617580#6"/>
    <trip id="100" depart="350.00" from="135617580#6" to="134404770#5"/>
    <trip id="101" depart="353.50" from="-136182587#0" to="136182587#0"/>
    <trip id="102" depart="357.00" from="136338240#1.156" to="134404770#5"/>
    <trip id="103" depart="360.50" from="610011092#1.11" to="135195291#4"/>
    <trip id="104" depart="364.00" from="135617580#6" to="-135617580#6"/>
    <trip id="105" depart="367.50" from="610011092#1.11" to="135195291#4"/>
    <trip id="106" depart="371.00" from="134404792#2" to="-135617580#6"/>
    <trip id="107" depart="374.50" from="135617577#1" to="135195291#4"/>
    <trip id="108" depart="378.00" from="-136182587#0" to="136182587#0"/>
    <trip id="109" depart="381.50" from="610011092#1.11" to="134404770#5"/>
    <trip id="110" depart="385.00" from="610011092#1.11" to="-135617580#6"/>
    <trip id="111" depart="388.50" from="134404792#2" to="136182587#0"/>
    <trip id="112" depart="392.00" from="610011092#1.11" to="134404770#5"/>
    <trip id="113" depart="395.50" from="624281145#1" to="134404770#5"/>
    <trip id="114" depart="399.00" from="136338240#1.156" to="134404795#2"/>
    <trip id="115" depart="402.50" from="624281145#2" to="135195291#4"/>
    <trip id="116" depart="406.00" from="624281145#1" to="134404770#5"/>
    <trip id="117" depart="409.50" from="624281145#1" to="134404770#5"/>
    <trip id="118" depart="413.00" from="610011092#1.11" to="134404795#1"/>
    <trip id="119" depart="416.50" from="136338240#1.156" to="135195291#4"/>
    <trip id="120" depart="420.00" from="135617577#0" to="135195291#4"/>
    <trip id="121" depart="423.50" from="134404792#2" to="136182587#0"/>
    <trip id="122" depart="427.00" from="135617580#6" to="136182587#0"/>
    <trip id="123" depart="430.50" from="610011092#1.11" to="135617577#0"/>
    <trip id="124" depart="434.00" from="135617573#1" to="-135617580#6"/>
    <trip id="125" depart="437.50" from="136338240#1.156" to="134404795#2"/>
    <trip id="126" depart="441.00" from="134404792#3" to="134404795#2"/>
    <trip id="127" depart="444.50" from="135617577#1" to="134404770#5"/>
    <trip id="128" depart="448.00" from="134404792#3" to="135195291#4"/>
    <trip id="129" depart="451.50" from="135617580#6" to="135195291#4"/>
    <trip id="130" depart="455.00" from="136338240#1.156" to="135195291#2"/>
    <trip id="131" depart="458.50" from="135617580#6" to="134404770#5"/>
    <trip id="132" depart="462.00" from="610011092#1.11" to="134404770#5"/>
    <trip id="133" depart="465.50" from="-136182587#0" to="135195291#4"/>
    <trip id="134" depart="469.00" from="136338240#1.156" to="134404795#2"/>
    <trip id="135" depart="472.50" from="610011092#1.11" to="136182587#0"/>
    <trip id="136" depart="476.00" from="136338240#1.156" to="134404770#5"/>
    <trip id="137" depart="479.50" from="134404792#2" to="-135617580#6"/>
    <trip id="138" depart="483.00" from="134404792#2" to="135195291#2"/>
    <trip id="139" depart="486.50" from="610011092#2" to="-135617580#6"/>
    <trip id="140" depart="490.00" from="135617580#6" to="135195291#4"/>
    <trip id="141" depart="493.50" from="134404792#2" to="136182587#0"/>
    <trip id="142" depart="497.00" from="135617580#6" to="134404770#5"/>
    <trip id="143" depart="500.50" from="136338240#1.156" to="-135617580#6"/>
    <trip id="144" depart="504.00" from="610011092#1.11" to="136182587#0"/>
    <trip id="145" depart="507.50" from="135617580#6" to="-135617580#6"/>
    <trip id="146" depart="511.00" from="135617580#6" to="136182587#0"/>
    <trip id="147" depart="514.50" from="610011092#1.11" to="135195291#4"/>
    <trip id="148" depart="518.00" from="610011092#1.11" to="135195291#4"/>
    <trip id="149" depart="521.50" from="135617580#6" to="134404770#5"/>
    <trip id="150" depart="525.00" from="134404792#2" to="135617573#1"/>
    <trip id="151" depart="528.50" from="610011092#1.11" to="135195291#4"/>
    <trip id="152" depart="532.00" from="136338240#1.156" to="134404770#5"/>
    <trip id="153" depart="535.50" from="134404792#2" to="134404795#1"/>
    <trip id="154" depart="539.00" from="135617580#6" to="-135617580#6"/>
    <trip id="155" depart="542.50" from="134404792#2" to="136182587#0"/>
    <trip id="156" depart="546.00" from="610011092#1.11" to="-135617580#6"/>
    <trip id="157" depart="549.50" from="135617577#1" to="135195291#4"/>
    <trip id="158" depart="553.00" from="135617580#6" to="134404770#5"/>
    <trip id="159" depart="556.50" from="136338240#1.156" to="136182587#0"/>
    <trip id="160" depart="560.00" from="610011092#2" to="136182587#0"/>
    <trip id="161" depart="563.50" from="135617577#0" to="-135617580#6"/>
    <trip id="162" depart="567.00" from="135195291#3" to="136182587#0"/>
    <trip id="163" depart="570.50" from="135617580#6" to="136182587#0"/>
    <trip id="164" depart="574.00" from="135617580#6" to="135195291#4"/>
    <trip id="165" depart="577.50" from="134404792#2" to="134404770#5"/>
    <trip id="166" depart="581.00" from="135617580#6" to="-135617580#6"/>
    <trip id="167" depart="584.50" from="135617577#1" to="134404770#5"/>
    <trip id="168" depart="588.00" from="135617580#6" to="-135617580#6"/>
    <trip id="169" depart="591.50" from="136338240#1.156" to="-135617580#6"/>
    <trip id="170" depart="595.00" from="135617577#0" to="135195291#4"/>
    <trip id="171" depart="598.50" from="134404792#2" to="134404795#2"/>
    <trip id="172" depart="602.00" from="610011092#1.11" to="134404795#2"/>
    <trip id="173" depart="605.50" from="134404792#2" to="-135617580#6"/>
    <trip id="174" depart="609.00" from="-136182587#0" to="135195291#4"/>
    <trip id="175" depart="612.50" from="624281145#3" to="134404795#2"/>
    <trip id="176" depart="616.00" from="136338240#1.156" to="136182587#0"/>
    <trip id="177" depart="619.50" from="136338240#1.156" to="136182587#0"/>
    <trip id="178" depart="623.00" from="624281145#0" to="134404770#5"/>
    <trip id="179" depart="626.50" from="136338240#1.156" to="134404770#5"/>
    <trip id="180" depart="630.00" from="136338240#2" to="136182587#0"/>
    <trip id="181" depart="633.50" from="134404792#2" to="135195291#4"/>
    <trip id="182" depart="637.00" from="610011092#1.11" to="-135617580#6"/>
    <trip id="183" depart="640.50" from="610011092#1.11" to="624281145#1"/>
    <trip id="184" depart="644.00" from="624281145#1" to="134404795#2"/>
    <trip id="185" depart="647.50" from="610011092#1.11" to="-135617580#6"/>
    <trip id="186" depart="651.00" from="136338240#2" to="135195291#4"/>
    <trip id="187" depart="654.50" from="-136182587#0" to="136182587#0"/>
    <trip id="188" depart="658.00" from="610011092#2" to="135195291#4"/>
    <trip id="189" depart="661.50" from="610011092#1.11" to="134404795#2"/>
    <trip id="190" depart="665.00" from="135617580#6" to="134404795#2"/>
    <trip id="191" depart="668.50" from="135617580#6" to="134404795#2"/>
    <trip id="192" depart="672.00" from="610011092#2" to="136182587#0"/>
    <trip id="193" depart="675.50" from="136338240#1.156" to="136182587#0"/>
    <trip id="194" depart="679.00" from="610011092#1.11" to="134404795#2"/>
    <trip id="195" depart="682.50" from="610011092#1.11" to="624281145#1"/>
    <trip id="196" depart="686.00" from="134404792#2" to="136182587#0"/>
    <trip id="197" depart="689.50" from="135617580#6" to="135195291#3"/>
    <trip id="198" depart="693.00" from="135617580#6" to="136182587#0"/>
    <trip id="199" depart="696.50" from="610011092#1.11" to="-135617580#6"/>
    <trip id="200" depart="700.00" from="135617580#6" to="135195291#4"/>
    <trip id="201" depart="703.50" from="135617573#2" to="-135617580#6"/>
    <trip id="202" depart="707.00" from="610011092#2" to="134404770#5"/>
    <trip id="203" depart="710.50" from="134404792#2" to="136182587#0"/>
    <trip id="204" depart="714.00" from="136338240#2" to="134404770#5"/>
    <trip id="205" depart="717.50" from="-136182587#0" to="136182587#0"/>
    <trip id="206" depart="721.00" from="135617580#6" to="136182587#0"/>
    <trip id="207" depart="724.50" from="136338240#2" to="135617573#1"/>
    <trip id="208" depart="728.00" from="135617580#6" to="136182587#0"/>
    <trip id="209" depart="731.50" from="136338240#1.156" to="135195291#2"/>
    <trip id="210" depart="735.00" from="135617580#6" to="134404795#2"/>
    <trip id="211" depart="738.50" from="610011092#1.11" to="134404795#2"/>
    <trip id="212" depart="742.00" from="136338240#2" to="134404770#5"/>
    <trip id="213" depart="745.50" from="134404792#2" to="-135617580#6"/>
    <trip id="214" depart="749.00" from="134404792#2" to="-135617580#6"/>
    <trip id="215" depart="752.50" from="135617580#6" to="136182587#0"/>
    <trip id="216" depart="756.00" from="134404792#2" to="134404770#5"/>
    <trip id="217" depart="759.50" from="135617580#6" to="136182587#0"/>
    <trip id="218" depart="763.00" from="624281145#2" to="135195291#4"/>
    <trip id="219" depart="766.50" from="134404792#2" to="-135617580#6"/>
    <trip id="220" depart="770.00" from="134404792#2" to="134404770#5"/>
    <trip id="221" depart="773.50" from="134404792#2" to="-135617580#6"/>
    <trip id="222" depart="777.00" from="135617580#6" to="134404770#5"/>
    <trip id="223" depart="780.50" from="624281145#2" to="135195291#4"/>
    <trip id="224" depart="784.00" from="136338240#2" to="-135617580#6"/>
    <trip id="225" depart="787.50" from="624281141#0" to="135195291#3"/>
    <trip id="226" depart="791.00" from="624281141#0" to="135195291#4"/>
    <trip id="227" depart="794.50" from="135617580#6" to="134404795#2"/>
    <trip id="228" depart="798.00" from="134404792#2" to="-135617580#6"/>
    <trip id="229" depart="801.50" from="610011092#1.11" to="134404795#2"/>
    <trip id="230" depart="805.00" from="-136182587#0" to="135195291#4"/>
    <trip id="231" depart="808.50" from="624281145#3" to="-135617580#6"/>
    <trip id="232" depart="812.00" from="610011092#1.11" to="135195291#4"/>
    <trip id="233" depart="815.50" from="610011092#1.11" to="134404770#5"/>
    <trip id="234" depart="819.00" from="135617580#6" to="134404795#2"/>
    <trip id="235" depart="822.50" from="136338240#1.156" to="135195291#4"/>
    <trip id="236" depart="826.00" from="610011092#1.11" to="624281145#0"/>
    <trip id="237" depart="829.50" from="134404792#2" to="134404770#5"/>
    <trip id="238" depart="833.00" from="136338240#1.156" to="134404770#5"/>
    <trip id="239" depart="836.50" from="134404792#2" to="-135617580#6"/>
    <trip id="240" depart="840.00" from="136338240#1.156" to="134404770#5"/>
    <trip id="241" depart="843.50" from="134404792#2" to="136182587#0"/>
    <trip id="242" depart="847.00" from="136338240#2" to="134404795#2"/>
    <trip id="243" depart="850.50" from="136338240#1.156" to="624281144#0"/>
    <trip id="244" depart="854.00" from="610011092#1.11" to="135195291#4"/>
    <trip id="245" depart="857.50" from="136338240#1.156" to="624281144#1"/>
    <trip id="246" depart="861.00" from="135617580#6" to="135195291#4"/>
    <trip id="247" depart="864.50" from="610011092#1.11" to="-135617580#6"/>
    <trip id="248" depart="868.00" from="134404792#2" to="134404792#3"/>
    <trip id="249" depart="871.50" from="610011092#1.11" to="135195291#4"/>
    <trip id="250" depart="875.00" from="134404792#2" to="-135617580#6"/>
    <trip id="251" depart="878.50" from="136338240#1.156" to="136182587#0"/>
    <trip id="252" depart="882.00" from="135617580#6" to="-135617580#6"/>
    <trip id="253" depart="885.50" from="610011092#1.11" to="135195291#4"/>
    <trip id="254" depart="889.00" from="624281145#0" to="624281145#3"/>
    <trip id="255" depart="892.50" from="136338240#1.156" to="134404770#5"/>
    <trip id="256" depart="896.00" from="-136182587#0" to="136182587#0"/>
    <trip id="257" depart="899.50" from="135617580#6" to="135617573#2"/>
    <trip id="258" depart="903.00" from="624281144#0" to="134404770#5"/>
    <trip id="259" depart="906.50" from="136338240#1.156" to="135617573#1"/>
    <trip id="260" depart="910.00" from="135617580#6" to="-135617580#6"/>
    <trip id="261" depart="913.50" from="135195291#2" to="136182587#0"/>
    <trip id="262" depart="917.00" from="610011092#1.11" to="135195291#4"/>
    <trip id="263" depart="920.50" from="135617580#6" to="134404795#1"/>
    <trip id="264" depart="924.00" from="135617577#1" to="135195291#4"/>
    <trip id="265" depart="927.50" from="624281145#3" to="135617573#2"/>
    <trip id="266" depart="931.00" from="135617580#6" to="134404795#2"/>
    <trip id="267" depart="934.50" from="134404792#2" to="134404795#2"/>
    <trip id="268" depart="938.00" from="610011092#1.11" to="135195291#4"/>
    <trip id="269" depart="941.50" from="610011092#1.11" to="134404770#5"/>
    <trip id="270" depart="945.00" from="135617580#6" to="624281144#0"/>
    <trip id="271" depart="948.50" from="135617580#6" to="136182587#0"/>
    <trip id="272" depart="952.00" from="136338240#1.156" to="134404770#5"/>
    <trip id="273" depart="955.50" from="134404792#2" to="135195291#4"/>
    <trip id="274" depart="959.00" from="136338240#1.156" to="-135617580#6"/>
    <trip id="275" depart="962.50" from="135617580#6" to="-135617580#6"/>
    <trip id="276" depart="966.00" from="610011092#1.11" to="135195291#4"/>
    <trip id="277" depart="969.50" from="610011092#1.11" to="135195291#4"/>
    <trip id="278" depart="973.00" from="624281145#2" to="134404770#5"/>
    <trip id="279" depart="976.50" from="136338240#1.156" to="134404795#2"/>
    <trip id="280" depart="980.00" from="134404792#2" to="136182587#0"/>
    <trip id="281" depart="983.50" from="135617580#6" to="624281144#1"/>
    <trip id="282" depart="987.00" from="135617580#6" to="136182587#0"/>
    <trip id="283" depart="990.50" from="134404792#2" to="134404792#3"/>
    <trip id="284" depart="994.00" from="135617580#6" to="134404770#4"/>
    <trip id="285" depart="997.50" from="135617580#6" to="134404795#2"/>
    <trip id="286" depart="1001.00" from="136338240#1.156" to="135195291#4"/>
    <trip id="287" depart="1004.50" from="135617580#6" to="134404795#1"/>
    <trip id="288" depart="1008.00" from="134404792#2" to="136182587#0"/>
    <trip id="289" depart="1011.50" from="136338240#1.156" to="134404770#5"/>
    <trip id="290" depart="1015.00" from="610011092#1.11" to="-135617580#6"/>
    <trip id="291" depart="1018.50" from="610011092#1.11" to="136182587#0"/>
    <trip id="292" depart="1022.00" from="610011092#1.11" to="134404795#2"/>
    <trip id="293" depart="1025.50" from="136338240#1.156" to="136182587#0"/>
    <trip id="294" depart="1029.00" from="624281145#2" to="135195291#4"/>
    <trip id="295" depart="1032.50" from="-136182587#0" to="135195291#4"/>
    <trip id="296" depart="1036.00" from="136338240#1.156" to="624281141#0"/>
    <trip id="297" depart="1039.50" from="135617580#6" to="134404795#2"/>
    <trip id="298" depart="1043.00" from="610011092#1.11" to="134404795#2"/>
    <trip id="299" depart="1046.50" from="136338240#1.156" to="134404770#4"/>
    <trip id="300" depart="1050.00" from="135195291#3" to="136182587#0"/>
    <trip id="301" depart="1053.50" from="135617573#2" to="134404795#1"/>
    <trip id="302" depart="1057.00" from="610011092#1.11" to="136182587#0"/>
    <trip id="303" depart="1060.50" from="-136182587#0" to="135195291#4"/>
    <trip id="304" depart="1064.00" from="610011092#1.11" to="134404795#2"/>
    <trip id="305" depart="1067.50" from="-136182587#0" to="135195291#4"/>
    <trip id="306" depart="1071.00" from="-136182587#0" to="136182587#0"/>
    <trip id="307" depart="1074.50" from="134404792#2" to="134404795#2"/>
    <trip id="308" depart="1078.00" from="136338240#1.156" to="136182587#0"/>
    <trip id="309" depart="1081.50" from="134404792#2" to="-135617580#6"/>
    <trip id="310" depart="1085.00" from="624281141#0" to="135195291#4"/>
    <trip id="311" depart="1088.50" from="134404792#2" to="624281142#1"/>
    <trip id="312" depart="1092.00" from="134404792#2" to="134404770#5"/>
    <trip id="313" depart="1095.50" from="-136182587#0" to="136182587#0"/>
    <trip id="314" depart="1099.00" from="134404792#2" to="134404795#2"/>
    <trip id="315" depart="1102.50" from="135195291#3" to="135195291#4"/>
    <trip id="316" depart="1106.00" from="136338240#1.156" to="134404795#2"/>
    <trip id="317" depart="1109.50" from="134404792#2" to="134404795#2"/>
    <trip id="318" depart="1113.00" from="135617580#6" to="134404770#5"/>
    <trip id="319" depart="1116.50" from="136338240#1.156" to="135195291#4"/>
    <trip id="320" depart="1120.00" from="624281145#3" to="134404770#5"/>
    <trip id="321" depart="1123.50" from="624281145#2" to="135617573#2"/>
    <trip id="322" depart="1127.00" from="134404792#2" to="135195291#4"/>
    <trip id="323" depart="1130.50" from="136338240#1.156" to="136182587#0"/>
    <trip id="324" depart="1134.00" from="-136182587#0" to="135195291#4"/>
    <trip id="325" depart="1137.50" from="134404792#2" to="136182587#0"/>
    <trip id="326" depart="1141.00" from="136338240#1.156" to="134404795#2"/>
    <trip id="327" depart="1144.50" from="136338240#1.156" to="135195291#4"/>
    <trip id="328" depart="1148.00" from="136338240#1.156" to="136182587#0"/>
    <trip id="329" depart="1151.50" from="136338240#1.156" to="136338240#2"/>
    <trip id="330" depart="1155.00" from="135617580#6" to="135195291#4"/>
    <trip id="331" depart="1158.50" from="610011092#1.11" to="-135617580#6"/>
    <trip id="332" depart="1162.00" from="134404792#2" to="136182587#0"/>
    <trip id="333" depart="1165.50" from="134404792#2" to="-135617580#6"/>
    <trip id="334" depart="1169.00" from="610011092#1.11" to="134404770#5"/>
    <trip id="335" depart="1172.50" from="610011092#1.11" to="135195291#3"/>
    <trip id="336" depart="1176.00" from="610011092#1.11" to="136182587#0"/>
    <trip id="337" depart="1179.50" from="624281145#1" to="-135617580#6"/>
    <trip id="338" depart="1183.00" from="610011092#1.11" to="624281145#2"/>
    <trip id="339" depart="1186.50" from="624281145#1" to="136182587#0"/>
    <trip id="340" depart="1190.00" from="135617573#1" to="136182587#0"/>
    <trip id="341" depart="1193.50" from="-136182587#0" to="135195291#4"/>
    <trip id="342" depart="1197.00" from="135617580#6" to="135617577#0"/>
    <trip id="343" depart="1200.50" from="136338240#1.156" to="135195291#4"/>
    <trip id="344" depart="1204.00" from="610011092#1.11" to="624281144#1"/>
    <trip id="345" depart="1207.50" from="134404792#2" to="-135617580#6"/>
    <trip id="346" depart="1211.00" from="134404792#3" to="134404795#2"/>
    <trip id="347" depart="1214.50" from="134404792#3" to="135195291#3"/>
    <trip id="348" depart="1218.00" from="136338240#1.156" to="136182587#0"/>
    <trip id="349" depart="1221.50" from="624281145#0" to="134404795#2"/>
    <trip id="350" depart="1225.00" from="610011092#1.11" to="134404770#4"/>
    <trip id="351" depart="1228.50" from="135617580#6" to="-135617580#6"/>
    <trip id="352" depart="1232.00" from="135617580#6" to="134404795#2"/>
    <trip id="353" depart="1235.50" from="624281145#0" to="-135617580#6"/>
    <trip id="354" depart="1239.00" from="135617573#2" to="134404795#2"/>
    <trip id="355" depart="1242.50" from="135617573#1" to="134404795#2"/>
    <trip id="356" depart="1246.00" from="134404792#2" to="-135617580#6"/>
    <trip id="357" depart="1249.50" from="610011092#2" to="134404795#2"/>
    <trip id="358" depart="1253.00" from="136338240#1.156" to="135617573#1"/>
    <trip id="359" depart="1256.50" from="136338240#1.156" to="-135617580#6"/>
    <trip id="360" depart="1260.00" from="610011092#1.11" to="134404770#5"/>
    <trip id="361" depart="1263.50" from="-136182587#0" to="135195291#4"/>
    <trip id="362" depart="1267.00" from="-136182587#0" to="136182587#0"/>
    <trip id="363" depart="1270.50" from="134404792#2" to="134404770#5"/>
    <trip id="364" depart="1274.00" from="134404792#2" to="134404770#5"/>
    <trip id="365" depart="1277.50" from="136338240#1.156" to="-135617580#6"/>
    <trip id="366" depart="1281.00" from="-136182587#0" to="136182587#0"/>
    <trip id="367" depart="1284.50" from="134404792#2" to="134404795#1"/>
    <trip id="368" depart="1288.00" from="134404792#2" to="-135617580#6"/>
    <trip id="369" depart="1291.50" from="610011092#1.11" to="135195291#4"/>
    <trip id="370" depart="1295.00" from="610011092#1.11" to="135195291#2"/>
    <trip id="371" depart="1298.50" from="610011092#1.11" to="135195291#4"/>
    <trip id="372" depart="1302.00" from="-136182587#0" to="135195291#4"/>
    <trip id="373" depart="1305.50" from="624281145#0" to="-135617580#6"/>
    <trip id="374" depart="1309.00" from="135617580#6" to="134404795#2"/>
    <trip id="375" depart="1312.50" from="624281145#1" to="-135617580#6"/>
    <trip id="376" depart="1316.00" from="135617580#6" to="134404795#2"/>
    <trip id="377" depart="1319.50" from="136338240#1.156" to="135195291#3"/>
    <trip id="378" depart="1323.00" from="-136182587#0" to="135195291#4"/>
    <trip id="379" depart="1326.50" from="136338240#1.156" to="135195291#4"/>
    <trip id="380" depart="1330.00" from="135617580#6" to="134404795#2"/>
    <trip id="381" depart="1333.50" from="136338240#1.156" to="-135617580#6"/>
    <trip id="382" depart="1337.00" from="136338240#1.156" to="136182587#0"/>
    <trip id="383" depart="1340.50" from="610011092#1.11" to="134404770#5"/>
    <trip id="384" depart="1344.00" from="135617580#6" to="134404770#5"/>
    <trip id="385" depart="1347.50" from="135617580#6" to="-135617580#6"/>
    <trip id="386" depart="1351.00" from="135617580#6" to="135617577#0"/>
    <trip id="387" depart="1354.50" from="135617573#2" to="134404770#4"/>
    <trip id="388" depart="1358.00" from="610011092#1.11" to="-135617580#6"/>
    <trip id="389" depart="1361.50" from="-136182587#0" to="136182587#0"/>
    <trip id="390" depart="1365.00" from="610011092#1.11" to="135195291#4"/>
    <trip id="391" depart="1368.50" from="136338240#1.156" to="135195291#4"/>
    <trip id="392" depart="1372.00" from="135617573#1" to="135617577#0"/>
    <trip id="393" depart="1375.50" from="610011092#1.11" to="624281145#1"/>
    <trip id="394" depart="1379.00" from="136338240#1.156" to="134404795#2"/>
    <trip id="395" depart="1382.50" from="136338240#1.156" to="134404770#5"/>